sim-outorder: SimpleScalar/Alpha Tool Set version 3.0 of August, 2003.
Copyright (c) 1994-2003 by Todd M. Austin, Ph.D. and SimpleScalar, LLC.
All Rights Reserved. This version of SimpleScalar is licensed for academic
non-commercial use.  No portion of this work may be used by any commercial
entity, or for any commercial purpose, without the prior written permission
of SimpleScalar, LLC (info@simplescalar.com).


Processor Parameters:
Issue Width: 4
Window Size: 16
Number of Virtual Registers: 32
Number of Physical Registers: 16
Datapath Width: 64
Total Power Consumption: 73.4052
Branch Predictor Power Consumption: 3.11855  (4.37%)
 branch target buffer power (W): 2.49493
 local predict power (W): 0.35683
 global predict power (W): 0.0996078
 chooser power (W): 0.0702439
 RAS power (W): 0.0969383
Rename Logic Power Consumption: 0.417965  (0.585%)
 Instruction Decode Power (W): 0.0159915
 RAT decode_power (W): 0.113514
 RAT wordline_power (W): 0.0307815
 RAT bitline_power (W): 0.246771
 DCL Comparators (W): 0.0109075
Instruction Window Power Consumption: 2.20432  (3.09%)
 tagdrive (W): 0.0943488
 tagmatch (W): 0.033695
 Selection Logic (W): 0.0134217
 decode_power (W): 0.0532503
 wordline_power (W): 0.0844643
 bitline_power (W): 1.92514
Load/Store Queue Power Consumption: 0.96318  (1.35%)
 tagdrive (W): 0.457232
 tagmatch (W): 0.100774
 decode_power (W): 0.00799577
 wordline_power (W): 0.0150119
 bitline_power (W): 0.382166
Arch. Register File Power Consumption: 3.57247  (5%)
 decode_power (W): 0.113514
 wordline_power (W): 0.0844643
 bitline_power (W): 3.37449
Result Bus Power Consumption: 2.29754  (3.22%)
Total Clock Power: 27.3158  (38.3%)
Int ALU Power: 4.66013  (6.53%)
FP ALU Power: 14.281  (20%)
Instruction Cache Power Consumption: 2.76773  (3.88%)
 decode_power (W): 0.151353
 wordline_power (W): 0.180479
 bitline_power (W): 1.42251
 senseamp_power (W): 0.768
 tagarray_power (W): 0.245382
Itlb_power (W): 0.264834 (0.371%)
Data Cache Power Consumption: 5.53546  (7.75%)
 decode_power (W): 0.302705
 wordline_power (W): 0.360958
 bitline_power (W): 2.84503
 senseamp_power (W): 1.536
 tagarray_power (W): 0.490764
Dtlb_power (W): 0.903238 (1.26%)
Level 2 Cache Power Consumption: 3.10298 (4.35%)
 decode_power (W): 0.19487
 wordline_power (W): 0.0430878
 bitline_power (W): 1.77274
 senseamp_power (W): 0.192
 tagarray_power (W): 0.900275
sim: loading EIO file: ../benchmarks/255.vortex.two-ref.eio.gz
sim: command line: ./sim-outorder -config ../configs/current_7114.config ../benchmarks/255.vortex.two-ref.eio.gz 

sim: simulation started @ Mon Nov 23 19:46:20 2015, options follow:

sim-outorder: This simulator implements a very detailed out-of-order issue
superscalar processor with a two-level memory system and speculative
execution support.  This simulator is a performance simulator, tracking the
latency of all pipeline operations.

# -config                     # load configuration from a file
# -dumpconfig                 # dump configuration to a file
# -h                    false # print help message    
# -v                    false # verbose operation     
# -d                    false # enable debug message  
# -i                    false # start in Dlite debugger
-seed                       1 # random number generator seed (0 for timer seed)
# -q                    false # initialize and terminate immediately
# -chkpt               <null> # restore EIO trace execution from <fname>
# -redir:sim     ../results/05_04_2lbp/255.vortex.two-ref.eio.gz.out # redirect simulator output to file (non-interactive only)
# -redir:prog       /dev/null # redirect simulated program output to file
-nice                       0 # simulator scheduling priority
-freq            600000000.0000 # frequency             
-max:inst           100000000 # maximum number of inst's to execute
-fastfwd                    0 # number of insts skipped before timing starts
# -ptrace              <null> # generate pipetrace, i.e., <fname|stdout|stderr> <range>
-fetch:ifqsize              4 # instruction fetch queue size (in insts)
-fetch:mplat                3 # extra branch mis-prediction latency
-fetch:speed                1 # speed of front-end of machine relative to execution core
-bpred                   2lev # branch predictor type {nottaken|taken|perfect|bimod|2lev|comb}
-bpred:bimod     2048 # bimodal predictor config (<table size>)
-bpred:2lev      1 8192 16 0 # 2-level predictor config (<l1size> <l2size> <hist_size> <xor>)
-bpred:comb      1024 # combining predictor config (<meta_table_size>)
-bpred:ras                  8 # return address stack size (0 for no return stack)
-bpred:btb       512 4 # BTB config (<num_sets> <associativity>)
# -bpred:spec_update       <null> # speculative predictors update in {ID|WB} (default non-spec)
-decode:width               4 # instruction decode B/W (insts/cycle)
-issue:width                4 # instruction issue B/W (insts/cycle)
-issue:inorder          false # run pipeline with in-order issue
-issue:wrongpath         true # issue instructions down wrong execution paths
-commit:width               4 # instruction commit B/W (insts/cycle)
-ruu:size                  16 # register update unit (RUU) size
-lsq:size                   8 # load/store queue (LSQ) size
-cache:dl1       dl1:32:64:8:f # l1 data cache config, i.e., {<config>|none}
-cache:dl1lat               1 # l1 data cache hit latency (in cycles)
-cache:dl2       dl2:256:64:8:f # l2 data cache config, i.e., {<config>|none}
-cache:dl2lat               2 # l2 data cache hit latency (in cycles)
-cache:il1       il1:32:64:8:f # l1 inst cache config, i.e., {<config>|dl1|dl2|none}
-cache:il1lat               1 # l1 instruction cache hit latency (in cycles)
-cache:il2                dl2 # l2 instruction cache config, i.e., {<config>|dl2|none}
-cache:il2lat               2 # l2 instruction cache hit latency (in cycles)
-cache:flush            false # flush caches on system calls
-cache:icompress        false # convert 64-bit inst addresses to 32-bit inst equivalents
-mem:lat         103 1 # memory access latency (<first_chunk> <inter_chunk>)
-mem:width                  8 # memory access bus width (in bytes)
-tlb:itlb        itlb:16:4096:4:l # instruction TLB config, i.e., {<config>|none}
-tlb:dtlb        dtlb:32:4096:4:l # data TLB config, i.e., {<config>|none}
-tlb:lat                   30 # inst/data TLB miss latency (in cycles)
-res:ialu                   4 # total number of integer ALU's available
-res:imult                  1 # total number of integer multiplier/dividers available
-res:memport                2 # total number of memory system ports available (to CPU)
-res:fpalu                  4 # total number of floating point ALU's available
-res:fpmult                 1 # total number of floating point multiplier/dividers available
# -pcstat              <null> # profile stat(s) against text addr's (mult uses ok)
-bugcompat              false # operate in backward-compatible bugs mode (for testing only)

  Pipetrace range arguments are formatted as follows:

    {{@|#}<start>}:{{@|#|+}<end>}

  Both ends of the range are optional, if neither are specified, the entire
  execution is traced.  Ranges that start with a `@' designate an address
  range to be traced, those that start with an `#' designate a cycle count
  range.  All other range values represent an instruction count range.  The
  second argument, if specified with a `+', indicates a value relative
  to the first argument, e.g., 1000:+100 == 1000:1100.  Program symbols may
  be used in all contexts.

    Examples:   -ptrace FOO.trc #0:#1000
                -ptrace BAR.trc @2000:
                -ptrace BLAH.trc :1500
                -ptrace UXXE.trc :
                -ptrace FOOBAR.trc @main:+278

  Branch predictor configuration examples for 2-level predictor:
    Configurations:   N, M, W, X
      N   # entries in first level (# of shift register(s))
      W   width of shift register(s)
      M   # entries in 2nd level (# of counters, or other FSM)
      X   (yes-1/no-0) xor history and address for 2nd level index
    Sample predictors:
      GAg     : 1, W, 2^W, 0
      GAp     : 1, W, M (M > 2^W), 0
      PAg     : N, W, 2^W, 0
      PAp     : N, W, M (M == 2^(N+W)), 0
      gshare  : 1, W, 2^W, 1
  Predictor `comb' combines a bimodal and a 2-level predictor.

  The cache config parameter <config> has the following format:

    <name>:<nsets>:<bsize>:<assoc>:<repl>

    <name>   - name of the cache being defined
    <nsets>  - number of sets in the cache
    <bsize>  - block size of the cache
    <assoc>  - associativity of the cache
    <repl>   - block replacement strategy, 'l'-LRU, 'f'-FIFO, 'r'-random

    Examples:   -cache:dl1 dl1:4096:32:1:l
                -dtlb dtlb:128:4096:32:r

  Cache levels can be unified by pointing a level of the instruction cache
  hierarchy at the data cache hiearchy using the "dl1" and "dl2" cache
  configuration arguments.  Most sensible combinations are supported, e.g.,

    A unified l2 cache (il2 is pointed at dl2):
      -cache:il1 il1:128:64:1:l -cache:il2 dl2
      -cache:dl1 dl1:256:32:1:l -cache:dl2 ul2:1024:64:2:l

    Or, a fully unified cache hierarchy (il1 pointed at dl1):
      -cache:il1 dl1
      -cache:dl1 ul1:256:32:1:l -cache:dl2 ul2:1024:64:2:l



sim: ** starting performance simulation **

sim: ** simulation statistics **
sim_num_insn              100000001 # total number of instructions committed
sim_num_refs               38466235 # total number of loads and stores committed
sim_num_loads              26218244 # total number of loads committed
sim_num_stores         12247991.0000 # total number of stores committed
sim_num_branches           17896986 # total number of branches committed
sim_elapsed_time                208 # total simulation time in seconds
sim_inst_rate           480769.2356 # simulation speed (in insts/sec)
sim_total_insn            118104362 # total number of instructions executed
sim_total_refs             43871868 # total number of loads and stores executed
sim_total_loads            29219412 # total number of loads executed
sim_total_stores       14652456.0000 # total number of stores executed
sim_total_branches         21133958 # total number of branches executed
sim_cycle                 103428483 # total simulation time in cycles
sim_IPC                      0.9669 # instructions per cycle
sim_CPI                      1.0343 # cycles per instruction
sim_exec_BW                  1.1419 # total instructions (mis-spec + committed) per cycle
sim_IPB                      5.5875 # instruction per branch
IFQ_count                 291298503 # cumulative IFQ occupancy
IFQ_fcount                 69379288 # cumulative IFQ full count
ifq_occupancy                2.8164 # avg IFQ occupancy (insn's)
ifq_rate                     1.1419 # avg IFQ dispatch rate (insn/cycle)
ifq_latency                  2.4664 # avg IFQ occupant latency (cycle's)
ifq_full                     0.6708 # fraction of time (cycle's) IFQ was full
RUU_count                1105050027 # cumulative RUU occupancy
RUU_fcount                 37971099 # cumulative RUU full count
ruu_occupancy               10.6842 # avg RUU occupancy (insn's)
ruu_rate                     1.1419 # avg RUU dispatch rate (insn/cycle)
ruu_latency                  9.3566 # avg RUU occupant latency (cycle's)
ruu_full                     0.3671 # fraction of time (cycle's) RUU was full
LSQ_count                 412021116 # cumulative LSQ occupancy
LSQ_fcount                 16373646 # cumulative LSQ full count
lsq_occupancy                3.9836 # avg LSQ occupancy (insn's)
lsq_rate                     1.1419 # avg LSQ dispatch rate (insn/cycle)
lsq_latency                  3.4886 # avg LSQ occupant latency (cycle's)
lsq_full                     0.1583 # fraction of time (cycle's) LSQ was full
sim_slip                 1520601983 # total number of slip cycles
avg_sim_slip                15.2060 # the average slip between issue and retirement
bpred_2lev.lookups         22494807 # total number of bpred lookups
bpred_2lev.updates         17896985 # total number of updates
bpred_2lev.addr_hits       14474285 # total number of address-predicted hits
bpred_2lev.dir_hits        14492508 # total number of direction-predicted hits (includes addr-hits)
bpred_2lev.misses           3404477 # total number of misses
bpred_2lev.jr_hits          1640078 # total number of address-predicted hits for JR's
bpred_2lev.jr_seen          1651260 # total number of JR's seen
bpred_2lev.jr_non_ras_hits.PP         9264 # total number of address-predicted hits for non-RAS JR's
bpred_2lev.jr_non_ras_seen.PP        11641 # total number of non-RAS JR's seen
bpred_2lev.bpred_addr_rate    0.8088 # branch address-prediction rate (i.e., addr-hits/updates)
bpred_2lev.bpred_dir_rate    0.8098 # branch direction-prediction rate (i.e., all-hits/updates)
bpred_2lev.bpred_jr_rate    0.9932 # JR address-prediction rate (i.e., JR addr-hits/JRs seen)
bpred_2lev.bpred_jr_non_ras_rate.PP    0.7958 # non-RAS JR addr-pred rate (ie, non-RAS JR hits/JRs seen)
bpred_2lev.retstack_pushes      2083566 # total number of address pushed onto ret-addr stack
bpred_2lev.retstack_pops      1796916 # total number of address popped off of ret-addr stack
bpred_2lev.used_ras.PP      1639619 # total number of RAS predictions used
bpred_2lev.ras_hits.PP      1630814 # total number of RAS hits
bpred_2lev.ras_rate.PP    0.9946 # RAS prediction rate (i.e., RAS hits/used RAS)
il1.accesses              125294458 # total number of accesses
il1.hits                  124883257 # total number of hits
il1.misses                   411201 # total number of misses
il1.replacements             410945 # total number of replacements
il1.writebacks                    0 # total number of writebacks
il1.invalidations                 0 # total number of invalidations
il1.miss_rate                0.0033 # miss rate (i.e., misses/ref)
il1.repl_rate                0.0033 # replacement rate (i.e., repls/ref)
il1.wb_rate                  0.0000 # writeback rate (i.e., wrbks/ref)
il1.inv_rate                 0.0000 # invalidation rate (i.e., invs/ref)
dl1.accesses               39092166 # total number of accesses
dl1.hits                   38568646 # total number of hits
dl1.misses                   523520 # total number of misses
dl1.replacements             523264 # total number of replacements
dl1.writebacks                61485 # total number of writebacks
dl1.invalidations                 0 # total number of invalidations
dl1.miss_rate                0.0134 # miss rate (i.e., misses/ref)
dl1.repl_rate                0.0134 # replacement rate (i.e., repls/ref)
dl1.wb_rate                  0.0016 # writeback rate (i.e., wrbks/ref)
dl1.inv_rate                 0.0000 # invalidation rate (i.e., invs/ref)
dl2.accesses                 996206 # total number of accesses
dl2.hits                     519208 # total number of hits
dl2.misses                   476998 # total number of misses
dl2.replacements             474950 # total number of replacements
dl2.writebacks                31307 # total number of writebacks
dl2.invalidations                 0 # total number of invalidations
dl2.miss_rate                0.4788 # miss rate (i.e., misses/ref)
dl2.repl_rate                0.4768 # replacement rate (i.e., repls/ref)
dl2.wb_rate                  0.0314 # writeback rate (i.e., wrbks/ref)
dl2.inv_rate                 0.0000 # invalidation rate (i.e., invs/ref)
itlb.accesses             125294458 # total number of accesses
itlb.hits                 125282577 # total number of hits
itlb.misses                   11881 # total number of misses
itlb.replacements             11819 # total number of replacements
itlb.writebacks                   0 # total number of writebacks
itlb.invalidations                0 # total number of invalidations
itlb.miss_rate               0.0001 # miss rate (i.e., misses/ref)
itlb.repl_rate               0.0001 # replacement rate (i.e., repls/ref)
itlb.wb_rate                 0.0000 # writeback rate (i.e., wrbks/ref)
itlb.inv_rate                0.0000 # invalidation rate (i.e., invs/ref)
dtlb.accesses              39438645 # total number of accesses
dtlb.hits                  39317422 # total number of hits
dtlb.misses                  121223 # total number of misses
dtlb.replacements            121095 # total number of replacements
dtlb.writebacks                   0 # total number of writebacks
dtlb.invalidations                0 # total number of invalidations
dtlb.miss_rate               0.0031 # miss rate (i.e., misses/ref)
dtlb.repl_rate               0.0031 # replacement rate (i.e., repls/ref)
dtlb.wb_rate                 0.0000 # writeback rate (i.e., wrbks/ref)
dtlb.inv_rate                0.0000 # invalidation rate (i.e., invs/ref)
rename_power           43229536.2311 # total power usage of rename unit
bpred_power            322546714.5816 # total power usage of bpred unit
window_power           227989413.4084 # total power usage of instruction window
lsq_power              99620245.1651 # total power usage of load/store queue
regfile_power          369495369.8441 # total power usage of arch. regfile
icache_power           313653396.3443 # total power usage of icache
dcache_power           665944537.8173 # total power usage of dcache
dcache2_power          320936180.5656 # total power usage of dcache2
alu_power              1959057042.4599 # total power usage of alu
falu_power             1477066815.7303 # total power usage of falu
resultbus_power        237631375.9291 # total power usage of resultbus
clock_power            2825229803.7854 # total power usage of clock
avg_rename_power             0.4180 # avg power usage of rename unit
avg_bpred_power              3.1185 # avg power usage of bpred unit
avg_window_power             2.2043 # avg power usage of instruction window
avg_lsq_power                0.9632 # avg power usage of lsq
avg_regfile_power            3.5725 # avg power usage of arch. regfile
avg_icache_power             3.0326 # avg power usage of icache
avg_dcache_power             6.4387 # avg power usage of dcache
avg_dcache2_power            3.1030 # avg power usage of dcache2
avg_alu_power               18.9412 # avg power usage of alu
avg_falu_power              14.2810 # avg power usage of falu
avg_resultbus_power          2.2975 # avg power usage of resultbus
avg_clock_power             27.3158 # avg power usage of clock
fetch_stage_power      636200110.9259 # total power usage of fetch stage
dispatch_stage_power   43229536.2311 # total power usage of dispatch stage
issue_stage_power      3511178795.3453 # total power usage of issue stage
avg_fetch_power              6.1511 # average power of fetch unit per cycle
avg_dispatch_power           0.4180 # average power of dispatch unit per cycle
avg_issue_power             33.9479 # average power of issue unit per cycle
total_power            7385333616.1318 # total power per cycle
avg_total_power_cycle       71.4052 # average total power per cycle
avg_total_power_cycle_nofp_nod2      54.0212 # average total power per cycle
avg_total_power_insn        62.5323 # average total power per insn
avg_total_power_insn_nofp_nod2      47.3084 # average total power per insn
rename_power_cc1       16137844.7200 # total power usage of rename unit_cc1
bpred_power_cc1        43576039.0746 # total power usage of bpred unit_cc1
window_power_cc1       111303442.6416 # total power usage of instruction window_cc1
lsq_power_cc1          14762213.6580 # total power usage of lsq_cc1
regfile_power_cc1      150055385.1262 # total power usage of arch. regfile_cc1
icache_power_cc1       123719417.3985 # total power usage of icache_cc1
dcache_power_cc1       168824428.8607 # total power usage of dcache_cc1
dcache2_power_cc1      2859259.6675 # total power usage of dcache2_cc1
alu_power_cc1          198780173.8701 # total power usage of alu_cc1
resultbus_power_cc1    93116843.6229 # total power usage of resultbus_cc1
clock_power_cc1        614438135.3783 # total power usage of clock_cc1
avg_rename_power_cc1         0.1560 # avg power usage of rename unit_cc1
avg_bpred_power_cc1          0.4213 # avg power usage of bpred unit_cc1
avg_window_power_cc1         1.0761 # avg power usage of instruction window_cc1
avg_lsq_power_cc1            0.1427 # avg power usage of lsq_cc1
avg_regfile_power_cc1        1.4508 # avg power usage of arch. regfile_cc1
avg_icache_power_cc1         1.1962 # avg power usage of icache_cc1
avg_dcache_power_cc1         1.6323 # avg power usage of dcache_cc1
avg_dcache2_power_cc1        0.0276 # avg power usage of dcache2_cc1
avg_alu_power_cc1            1.9219 # avg power usage of alu_cc1
avg_resultbus_power_cc1       0.9003 # avg power usage of resultbus_cc1
avg_clock_power_cc1          5.9407 # avg power usage of clock_cc1
fetch_stage_power_cc1  167295456.4731 # total power usage of fetch stage_cc1
dispatch_stage_power_cc1 16137844.7200 # total power usage of dispatch stage_cc1
issue_stage_power_cc1  589646362.3209 # total power usage of issue stage_cc1
avg_fetch_power_cc1          1.6175 # average power of fetch unit per cycle_cc1
avg_dispatch_power_cc1       0.1560 # average power of dispatch unit per cycle_cc1
avg_issue_power_cc1          5.7010 # average power of issue unit per cycle_cc1
total_power_cycle_cc1  1537573184.0185 # total power per cycle_cc1
avg_total_power_cycle_cc1      14.8661 # average total power per cycle_cc1
avg_total_power_insn_cc1      13.0188 # average total power per insn_cc1
rename_power_cc2       12340886.7854 # total power usage of rename unit_cc2
bpred_power_cc2        27906305.5749 # total power usage of bpred unit_cc2
window_power_cc2       92272678.4685 # total power usage of instruction window_cc2
lsq_power_cc2          10089012.8653 # total power usage of lsq_cc2
regfile_power_cc2      39255398.6657 # total power usage of arch. regfile_cc2
icache_power_cc2       123719417.3985 # total power usage of icache_cc2
dcache_power_cc2       125851282.2218 # total power usage of dcache_cc2
dcache2_power_cc2      1545602.0391 # total power usage of dcache2_cc2
alu_power_cc2          128567949.7512 # total power usage of alu_cc2
resultbus_power_cc2    63269317.2955 # total power usage of resultbus_cc2
clock_power_cc2        416310797.0625 # total power usage of clock_cc2
avg_rename_power_cc2         0.1193 # avg power usage of rename unit_cc2
avg_bpred_power_cc2          0.2698 # avg power usage of bpred unit_cc2
avg_window_power_cc2         0.8921 # avg power usage of instruction window_cc2
avg_lsq_power_cc2            0.0975 # avg power usage of instruction lsq_cc2
avg_regfile_power_cc2        0.3795 # avg power usage of arch. regfile_cc2
avg_icache_power_cc2         1.1962 # avg power usage of icache_cc2
avg_dcache_power_cc2         1.2168 # avg power usage of dcache_cc2
avg_dcache2_power_cc2        0.0149 # avg power usage of dcache2_cc2
avg_alu_power_cc2            1.2431 # avg power usage of alu_cc2
avg_resultbus_power_cc2       0.6117 # avg power usage of resultbus_cc2
avg_clock_power_cc2          4.0251 # avg power usage of clock_cc2
fetch_stage_power_cc2  151625722.9734 # total power usage of fetch stage_cc2
dispatch_stage_power_cc2 12340886.7854 # total power usage of dispatch stage_cc2
issue_stage_power_cc2  421595842.6415 # total power usage of issue stage_cc2
avg_fetch_power_cc2          1.4660 # average power of fetch unit per cycle_cc2
avg_dispatch_power_cc2       0.1193 # average power of dispatch unit per cycle_cc2
avg_issue_power_cc2          4.0762 # average power of issue unit per cycle_cc2
total_power_cycle_cc2  1041128648.1284 # total power per cycle_cc2
avg_total_power_cycle_cc2      10.0662 # average total power per cycle_cc2
avg_total_power_insn_cc2       8.8153 # average total power per insn_cc2
rename_power_cc3       15050055.9201 # total power usage of rename unit_cc3
bpred_power_cc3        55809246.8593 # total power usage of bpred unit_cc3
window_power_cc3       103956007.9893 # total power usage of instruction window_cc3
lsq_power_cc3          18545619.8041 # total power usage of lsq_cc3
regfile_power_cc3      59494658.8745 # total power usage of arch. regfile_cc3
icache_power_cc3       142712815.2142 # total power usage of icache_cc3
dcache_power_cc3       176071709.6151 # total power usage of dcache_cc3
dcache2_power_cc3      33353744.2596 # total power usage of dcache2_cc3
alu_power_cc3          304595635.8527 # total power usage of alu_cc3
resultbus_power_cc3    77102610.3031 # total power usage of resultbus_cc3
clock_power_cc3        636166768.0395 # total power usage of clock_cc3
avg_rename_power_cc3         0.1455 # avg power usage of rename unit_cc3
avg_bpred_power_cc3          0.5396 # avg power usage of bpred unit_cc3
avg_window_power_cc3         1.0051 # avg power usage of instruction window_cc3
avg_lsq_power_cc3            0.1793 # avg power usage of instruction lsq_cc3
avg_regfile_power_cc3        0.5752 # avg power usage of arch. regfile_cc3
avg_icache_power_cc3         1.3798 # avg power usage of icache_cc3
avg_dcache_power_cc3         1.7024 # avg power usage of dcache_cc3
avg_dcache2_power_cc3        0.3225 # avg power usage of dcache2_cc3
avg_alu_power_cc3            2.9450 # avg power usage of alu_cc3
avg_resultbus_power_cc3       0.7455 # avg power usage of resultbus_cc3
avg_clock_power_cc3          6.1508 # avg power usage of clock_cc3
fetch_stage_power_cc3  198522062.0735 # total power usage of fetch stage_cc3
dispatch_stage_power_cc3 15050055.9201 # total power usage of dispatch stage_cc3
issue_stage_power_cc3  713625327.8239 # total power usage of issue stage_cc3
avg_fetch_power_cc3          1.9194 # average power of fetch unit per cycle_cc3
avg_dispatch_power_cc3       0.1455 # average power of dispatch unit per cycle_cc3
avg_issue_power_cc3          6.8997 # average power of issue unit per cycle_cc3
total_power_cycle_cc3  1622858872.7314 # total power per cycle_cc3
avg_total_power_cycle_cc3      15.6906 # average total power per cycle_cc3
avg_total_power_insn_cc3      13.7409 # average total power per insn_cc3
total_rename_access       118104362 # total number accesses of rename unit
total_bpred_access         17896985 # total number accesses of bpred unit
total_window_access       434241750 # total number accesses of instruction window
total_lsq_access           41393115 # total number accesses of load/store queue
total_regfile_access      148199305 # total number accesses of arch. regfile
total_icache_access       127444875 # total number accesses of icache
total_dcache_access        39092166 # total number accesses of dcache
total_dcache2_access         996206 # total number accesses of dcache2
total_alu_access          110195608 # total number accesses of alu
total_resultbus_access    117494689 # total number accesses of resultbus
avg_rename_access            1.1419 # avg number accesses of rename unit
avg_bpred_access             0.1730 # avg number accesses of bpred unit
avg_window_access            4.1985 # avg number accesses of instruction window
avg_lsq_access               0.4002 # avg number accesses of lsq
avg_regfile_access           1.4329 # avg number accesses of arch. regfile
avg_icache_access            1.2322 # avg number accesses of icache
avg_dcache_access            0.3780 # avg number accesses of dcache
avg_dcache2_access           0.0096 # avg number accesses of dcache2
avg_alu_access               1.0654 # avg number accesses of alu
avg_resultbus_access         1.1360 # avg number accesses of resultbus
max_rename_access                 4 # max number accesses of rename unit
max_bpred_access                  4 # max number accesses of bpred unit
max_window_access                17 # max number accesses of instruction window
max_lsq_access                    6 # max number accesses of load/store queue
max_regfile_access               12 # max number accesses of arch. regfile
max_icache_access                 4 # max number accesses of icache
max_dcache_access                 4 # max number accesses of dcache
max_dcache2_access                6 # max number accesses of dcache2
max_alu_access                    4 # max number accesses of alu
max_resultbus_access              7 # max number accesses of resultbus
max_cycle_power_cc1         46.8169 # maximum cycle power usage of cc1
max_cycle_power_cc2         33.3632 # maximum cycle power usage of cc2
max_cycle_power_cc3         36.9547 # maximum cycle power usage of cc3
sim_invalid_addrs                 0 # total non-speculative bogus addresses seen (debug var)
ld_text_base           0x0120000000 # program text (code) segment base
ld_text_size                 819200 # program text (code) size in bytes
ld_data_base           0x0140000000 # program initialized data segment base
ld_data_size                 118976 # program init'ed `.data' and uninit'ed `.bss' size in bytes
ld_stack_base          0x011ff9b000 # program stack segment base (highest address in stack)
ld_stack_size                 16384 # program initial stack size
ld_prog_entry          0x012005fd04 # program entry point (initial PC)
ld_environ_base        0x011ff961e0 # program environment base address address
ld_target_big_endian              0 # target executable endian-ness, non-zero if big endian
mem.page_count                 7673 # total number of pages allocated
mem.page_mem                 61384k # total size of memory pages allocated
mem.ptab_misses               10850 # total first level page table misses
mem.ptab_accesses         840026234 # total page table accesses
mem.ptab_miss_rate           0.0000 # first level page table miss rate

