sim-outorder: SimpleScalar/Alpha Tool Set version 3.0 of August, 2003.
Copyright (c) 1994-2003 by Todd M. Austin, Ph.D. and SimpleScalar, LLC.
All Rights Reserved. This version of SimpleScalar is licensed for academic
non-commercial use.  No portion of this work may be used by any commercial
entity, or for any commercial purpose, without the prior written permission
of SimpleScalar, LLC (info@simplescalar.com).


Processor Parameters:
Issue Width: 4
Window Size: 16
Number of Virtual Registers: 32
Number of Physical Registers: 16
Datapath Width: 64
Total Power Consumption: 73.6205
Branch Predictor Power Consumption: 3.33649  (4.66%)
 branch target buffer power (W): 2.49493
 local predict power (W): 0.574771
 global predict power (W): 0.0996078
 chooser power (W): 0.0702439
 RAS power (W): 0.0969383
Rename Logic Power Consumption: 0.417965  (0.584%)
 Instruction Decode Power (W): 0.0159915
 RAT decode_power (W): 0.113514
 RAT wordline_power (W): 0.0307815
 RAT bitline_power (W): 0.246771
 DCL Comparators (W): 0.0109075
Instruction Window Power Consumption: 2.20432  (3.08%)
 tagdrive (W): 0.0943488
 tagmatch (W): 0.033695
 Selection Logic (W): 0.0134217
 decode_power (W): 0.0532503
 wordline_power (W): 0.0844643
 bitline_power (W): 1.92514
Load/Store Queue Power Consumption: 0.96318  (1.34%)
 tagdrive (W): 0.457232
 tagmatch (W): 0.100774
 decode_power (W): 0.00799577
 wordline_power (W): 0.0150119
 bitline_power (W): 0.382166
Arch. Register File Power Consumption: 3.57247  (4.99%)
 decode_power (W): 0.113514
 wordline_power (W): 0.0844643
 bitline_power (W): 3.37449
Result Bus Power Consumption: 2.29754  (3.21%)
Total Clock Power: 27.3131  (38.1%)
Int ALU Power: 4.66013  (6.51%)
FP ALU Power: 14.281  (19.9%)
Instruction Cache Power Consumption: 2.76773  (3.86%)
 decode_power (W): 0.151353
 wordline_power (W): 0.180479
 bitline_power (W): 1.42251
 senseamp_power (W): 0.768
 tagarray_power (W): 0.245382
Itlb_power (W): 0.264834 (0.37%)
Data Cache Power Consumption: 5.53546  (7.73%)
 decode_power (W): 0.302705
 wordline_power (W): 0.360958
 bitline_power (W): 2.84503
 senseamp_power (W): 1.536
 tagarray_power (W): 0.490764
Dtlb_power (W): 0.903238 (1.26%)
Level 2 Cache Power Consumption: 3.10298 (4.33%)
 decode_power (W): 0.19487
 wordline_power (W): 0.0430878
 bitline_power (W): 1.77274
 senseamp_power (W): 0.192
 tagarray_power (W): 0.900275
sim: loading EIO file: ../benchmarks/255.vortex.three-ref.eio.gz
sim: command line: ./sim-outorder -config ../configs/current.config ../benchmarks/255.vortex.three-ref.eio.gz 

sim: simulation started @ Mon Nov 23 20:52:11 2015, options follow:

sim-outorder: This simulator implements a very detailed out-of-order issue
superscalar processor with a two-level memory system and speculative
execution support.  This simulator is a performance simulator, tracking the
latency of all pipeline operations.

# -config                     # load configuration from a file
# -dumpconfig                 # dump configuration to a file
# -h                    false # print help message    
# -v                    false # verbose operation     
# -d                    false # enable debug message  
# -i                    false # start in Dlite debugger
-seed                       1 # random number generator seed (0 for timer seed)
# -q                    false # initialize and terminate immediately
# -chkpt               <null> # restore EIO trace execution from <fname>
# -redir:sim     ../results/12_01_ugh/255.vortex.three-ref.eio.gz.out # redirect simulator output to file (non-interactive only)
# -redir:prog       /dev/null # redirect simulated program output to file
-nice                       0 # simulator scheduling priority
-freq            600000000.0000 # frequency             
-max:inst           100000000 # maximum number of inst's to execute
-fastfwd                    0 # number of insts skipped before timing starts
# -ptrace              <null> # generate pipetrace, i.e., <fname|stdout|stderr> <range>
-fetch:ifqsize             16 # instruction fetch queue size (in insts)
-fetch:mplat                3 # extra branch mis-prediction latency
-fetch:speed                1 # speed of front-end of machine relative to execution core
-bpred                perfect # branch predictor type {nottaken|taken|perfect|bimod|2lev|comb}
-bpred:bimod     2048 # bimodal predictor config (<table size>)
-bpred:2lev      1 16384 4 0 # 2-level predictor config (<l1size> <l2size> <hist_size> <xor>)
-bpred:comb      1024 # combining predictor config (<meta_table_size>)
-bpred:ras                  8 # return address stack size (0 for no return stack)
-bpred:btb       512 4 # BTB config (<num_sets> <associativity>)
# -bpred:spec_update       <null> # speculative predictors update in {ID|WB} (default non-spec)
-decode:width               4 # instruction decode B/W (insts/cycle)
-issue:width                4 # instruction issue B/W (insts/cycle)
-issue:inorder          false # run pipeline with in-order issue
-issue:wrongpath         true # issue instructions down wrong execution paths
-commit:width               4 # instruction commit B/W (insts/cycle)
-ruu:size                  16 # register update unit (RUU) size
-lsq:size                   8 # load/store queue (LSQ) size
-cache:dl1       dl1:32:64:8:f # l1 data cache config, i.e., {<config>|none}
-cache:dl1lat               1 # l1 data cache hit latency (in cycles)
-cache:dl2       dl2:256:64:8:f # l2 data cache config, i.e., {<config>|none}
-cache:dl2lat               2 # l2 data cache hit latency (in cycles)
-cache:il1       il1:32:64:8:f # l1 inst cache config, i.e., {<config>|dl1|dl2|none}
-cache:il1lat               1 # l1 instruction cache hit latency (in cycles)
-cache:il2                dl2 # l2 instruction cache config, i.e., {<config>|dl2|none}
-cache:il2lat               2 # l2 instruction cache hit latency (in cycles)
-cache:flush            false # flush caches on system calls
-cache:icompress        false # convert 64-bit inst addresses to 32-bit inst equivalents
-mem:lat         103 1 # memory access latency (<first_chunk> <inter_chunk>)
-mem:width                  8 # memory access bus width (in bytes)
-tlb:itlb        itlb:16:4096:4:l # instruction TLB config, i.e., {<config>|none}
-tlb:dtlb        dtlb:32:4096:4:l # data TLB config, i.e., {<config>|none}
-tlb:lat                   30 # inst/data TLB miss latency (in cycles)
-res:ialu                   4 # total number of integer ALU's available
-res:imult                  1 # total number of integer multiplier/dividers available
-res:memport                2 # total number of memory system ports available (to CPU)
-res:fpalu                  4 # total number of floating point ALU's available
-res:fpmult                 1 # total number of floating point multiplier/dividers available
# -pcstat              <null> # profile stat(s) against text addr's (mult uses ok)
-bugcompat              false # operate in backward-compatible bugs mode (for testing only)

  Pipetrace range arguments are formatted as follows:

    {{@|#}<start>}:{{@|#|+}<end>}

  Both ends of the range are optional, if neither are specified, the entire
  execution is traced.  Ranges that start with a `@' designate an address
  range to be traced, those that start with an `#' designate a cycle count
  range.  All other range values represent an instruction count range.  The
  second argument, if specified with a `+', indicates a value relative
  to the first argument, e.g., 1000:+100 == 1000:1100.  Program symbols may
  be used in all contexts.

    Examples:   -ptrace FOO.trc #0:#1000
                -ptrace BAR.trc @2000:
                -ptrace BLAH.trc :1500
                -ptrace UXXE.trc :
                -ptrace FOOBAR.trc @main:+278

  Branch predictor configuration examples for 2-level predictor:
    Configurations:   N, M, W, X
      N   # entries in first level (# of shift register(s))
      W   width of shift register(s)
      M   # entries in 2nd level (# of counters, or other FSM)
      X   (yes-1/no-0) xor history and address for 2nd level index
    Sample predictors:
      GAg     : 1, W, 2^W, 0
      GAp     : 1, W, M (M > 2^W), 0
      PAg     : N, W, 2^W, 0
      PAp     : N, W, M (M == 2^(N+W)), 0
      gshare  : 1, W, 2^W, 1
  Predictor `comb' combines a bimodal and a 2-level predictor.

  The cache config parameter <config> has the following format:

    <name>:<nsets>:<bsize>:<assoc>:<repl>

    <name>   - name of the cache being defined
    <nsets>  - number of sets in the cache
    <bsize>  - block size of the cache
    <assoc>  - associativity of the cache
    <repl>   - block replacement strategy, 'l'-LRU, 'f'-FIFO, 'r'-random

    Examples:   -cache:dl1 dl1:4096:32:1:l
                -dtlb dtlb:128:4096:32:r

  Cache levels can be unified by pointing a level of the instruction cache
  hierarchy at the data cache hiearchy using the "dl1" and "dl2" cache
  configuration arguments.  Most sensible combinations are supported, e.g.,

    A unified l2 cache (il2 is pointed at dl2):
      -cache:il1 il1:128:64:1:l -cache:il2 dl2
      -cache:dl1 dl1:256:32:1:l -cache:dl2 ul2:1024:64:2:l

    Or, a fully unified cache hierarchy (il1 pointed at dl1):
      -cache:il1 dl1
      -cache:dl1 ul1:256:32:1:l -cache:dl2 ul2:1024:64:2:l



sim: ** starting performance simulation **

sim: ** simulation statistics **
sim_num_insn              100000000 # total number of instructions committed
sim_num_refs               44791263 # total number of loads and stores committed
sim_num_loads              27919556 # total number of loads committed
sim_num_stores         16871707.0000 # total number of stores committed
sim_num_branches           15797761 # total number of branches committed
sim_elapsed_time                124 # total simulation time in seconds
sim_inst_rate           806451.6129 # simulation speed (in insts/sec)
sim_total_insn            100000000 # total number of instructions executed
sim_total_refs             44791263 # total number of loads and stores executed
sim_total_loads            27919556 # total number of loads executed
sim_total_stores       16871707.0000 # total number of stores executed
sim_total_branches         15797761 # total number of branches executed
sim_cycle                 121612472 # total simulation time in cycles
sim_IPC                      0.8223 # instructions per cycle
sim_CPI                      1.2161 # cycles per instruction
sim_exec_BW                  0.8223 # total instructions (mis-spec + committed) per cycle
sim_IPB                      6.3300 # instruction per branch
IFQ_count                 827823689 # cumulative IFQ occupancy
IFQ_fcount                 37248823 # cumulative IFQ full count
ifq_occupancy                6.8071 # avg IFQ occupancy (insn's)
ifq_rate                     0.8223 # avg IFQ dispatch rate (insn/cycle)
ifq_latency                  8.2782 # avg IFQ occupant latency (cycle's)
ifq_full                     0.3063 # fraction of time (cycle's) IFQ was full
RUU_count                1079073210 # cumulative RUU occupancy
RUU_fcount                 31817773 # cumulative RUU full count
ruu_occupancy                8.8730 # avg RUU occupancy (insn's)
ruu_rate                     0.8223 # avg RUU dispatch rate (insn/cycle)
ruu_latency                 10.7907 # avg RUU occupant latency (cycle's)
ruu_full                     0.2616 # fraction of time (cycle's) RUU was full
LSQ_count                 485404896 # cumulative LSQ occupancy
LSQ_fcount                 28264131 # cumulative LSQ full count
lsq_occupancy                3.9914 # avg LSQ occupancy (insn's)
lsq_rate                     0.8223 # avg LSQ dispatch rate (insn/cycle)
lsq_latency                  4.8540 # avg LSQ occupant latency (cycle's)
lsq_full                     0.2324 # fraction of time (cycle's) LSQ was full
sim_slip                 1709269301 # total number of slip cycles
avg_sim_slip                17.0927 # the average slip between issue and retirement
il1.accesses              149606639 # total number of accesses
il1.hits                  147219891 # total number of hits
il1.misses                  2386748 # total number of misses
il1.replacements            2386492 # total number of replacements
il1.writebacks                    0 # total number of writebacks
il1.invalidations                 0 # total number of invalidations
il1.miss_rate                0.0160 # miss rate (i.e., misses/ref)
il1.repl_rate                0.0160 # replacement rate (i.e., repls/ref)
il1.wb_rate                  0.0000 # writeback rate (i.e., wrbks/ref)
il1.inv_rate                 0.0000 # invalidation rate (i.e., invs/ref)
dl1.accesses               44381561 # total number of accesses
dl1.hits                   43300286 # total number of hits
dl1.misses                  1081275 # total number of misses
dl1.replacements            1081019 # total number of replacements
dl1.writebacks               293676 # total number of writebacks
dl1.invalidations                 0 # total number of invalidations
dl1.miss_rate                0.0244 # miss rate (i.e., misses/ref)
dl1.repl_rate                0.0244 # replacement rate (i.e., repls/ref)
dl1.wb_rate                  0.0066 # writeback rate (i.e., wrbks/ref)
dl1.inv_rate                 0.0000 # invalidation rate (i.e., invs/ref)
dl2.accesses                3761699 # total number of accesses
dl2.hits                    2930909 # total number of hits
dl2.misses                   830790 # total number of misses
dl2.replacements             828742 # total number of replacements
dl2.writebacks               140740 # total number of writebacks
dl2.invalidations                 0 # total number of invalidations
dl2.miss_rate                0.2209 # miss rate (i.e., misses/ref)
dl2.repl_rate                0.2203 # replacement rate (i.e., repls/ref)
dl2.wb_rate                  0.0374 # writeback rate (i.e., wrbks/ref)
dl2.inv_rate                 0.0000 # invalidation rate (i.e., invs/ref)
itlb.accesses             149606639 # total number of accesses
itlb.hits                 149557182 # total number of hits
itlb.misses                   49457 # total number of misses
itlb.replacements             49394 # total number of replacements
itlb.writebacks                   0 # total number of writebacks
itlb.invalidations                0 # total number of invalidations
itlb.miss_rate               0.0003 # miss rate (i.e., misses/ref)
itlb.repl_rate               0.0003 # replacement rate (i.e., repls/ref)
itlb.wb_rate                 0.0000 # writeback rate (i.e., wrbks/ref)
itlb.inv_rate                0.0000 # invalidation rate (i.e., invs/ref)
dtlb.accesses              44791260 # total number of accesses
dtlb.hits                  44543616 # total number of hits
dtlb.misses                  247644 # total number of misses
dtlb.replacements            247516 # total number of replacements
dtlb.writebacks                   0 # total number of writebacks
dtlb.invalidations                0 # total number of invalidations
dtlb.miss_rate               0.0055 # miss rate (i.e., misses/ref)
dtlb.repl_rate               0.0055 # replacement rate (i.e., repls/ref)
dtlb.wb_rate                 0.0000 # writeback rate (i.e., wrbks/ref)
dtlb.inv_rate                0.0000 # invalidation rate (i.e., invs/ref)
rename_power           50829816.0426 # total power usage of rename unit
bpred_power            405758617.3878 # total power usage of bpred unit
window_power           268072733.4482 # total power usage of instruction window
lsq_power              117134699.5201 # total power usage of load/store queue
regfile_power          434457163.1313 # total power usage of arch. regfile
icache_power           368797489.1367 # total power usage of icache
dcache_power           783025711.2076 # total power usage of dcache
dcache2_power          377360676.5461 # total power usage of dcache2
alu_power              2303483168.6864 # total power usage of alu
falu_power             1736753180.1919 # total power usage of falu
resultbus_power        279409870.6046 # total power usage of resultbus
clock_power            3321619453.4315 # total power usage of clock
avg_rename_power             0.4180 # avg power usage of rename unit
avg_bpred_power              3.3365 # avg power usage of bpred unit
avg_window_power             2.2043 # avg power usage of instruction window
avg_lsq_power                0.9632 # avg power usage of lsq
avg_regfile_power            3.5725 # avg power usage of arch. regfile
avg_icache_power             3.0326 # avg power usage of icache
avg_dcache_power             6.4387 # avg power usage of dcache
avg_dcache2_power            3.1030 # avg power usage of dcache2
avg_alu_power               18.9412 # avg power usage of alu
avg_falu_power              14.2810 # avg power usage of falu
avg_resultbus_power          2.2975 # avg power usage of resultbus
avg_clock_power             27.3131 # avg power usage of clock
fetch_stage_power      774556106.5245 # total power usage of fetch stage
dispatch_stage_power   50829816.0426 # total power usage of dispatch stage
issue_stage_power      4128486860.0130 # total power usage of issue stage
avg_fetch_power              6.3691 # average power of fetch unit per cycle
avg_dispatch_power           0.4180 # average power of dispatch unit per cycle
avg_issue_power             33.9479 # average power of issue unit per cycle
total_power            8709949399.1429 # total power per cycle
avg_total_power_cycle       71.6205 # average total power per cycle
avg_total_power_cycle_nofp_nod2      54.2365 # average total power per cycle
avg_total_power_insn        87.0995 # average total power per insn
avg_total_power_insn_nofp_nod2      65.9584 # average total power per insn
rename_power_cc1       15004885.7377 # total power usage of rename unit_cc1
bpred_power_cc1              0.0000 # total power usage of bpred unit_cc1
window_power_cc1       100145030.5922 # total power usage of instruction window_cc1
lsq_power_cc1          16040415.2853 # total power usage of lsq_cc1
regfile_power_cc1      125924760.5982 # total power usage of arch. regfile_cc1
icache_power_cc1       123242622.6713 # total power usage of icache_cc1
dcache_power_cc1       188181041.3736 # total power usage of dcache_cc1
dcache2_power_cc1      10511713.9306 # total power usage of dcache2_cc1
alu_power_cc1          193503764.7832 # total power usage of alu_cc1
resultbus_power_cc1    91925277.2107 # total power usage of resultbus_cc1
clock_power_cc1        563169980.8758 # total power usage of clock_cc1
avg_rename_power_cc1         0.1234 # avg power usage of rename unit_cc1
avg_bpred_power_cc1          0.0000 # avg power usage of bpred unit_cc1
avg_window_power_cc1         0.8235 # avg power usage of instruction window_cc1
avg_lsq_power_cc1            0.1319 # avg power usage of lsq_cc1
avg_regfile_power_cc1        1.0355 # avg power usage of arch. regfile_cc1
avg_icache_power_cc1         1.0134 # avg power usage of icache_cc1
avg_dcache_power_cc1         1.5474 # avg power usage of dcache_cc1
avg_dcache2_power_cc1        0.0864 # avg power usage of dcache2_cc1
avg_alu_power_cc1            1.5912 # avg power usage of alu_cc1
avg_resultbus_power_cc1       0.7559 # avg power usage of resultbus_cc1
avg_clock_power_cc1          4.6309 # avg power usage of clock_cc1
fetch_stage_power_cc1  123242622.6713 # total power usage of fetch stage_cc1
dispatch_stage_power_cc1 15004885.7377 # total power usage of dispatch stage_cc1
issue_stage_power_cc1  600307243.1755 # total power usage of issue stage_cc1
avg_fetch_power_cc1          1.0134 # average power of fetch unit per cycle_cc1
avg_dispatch_power_cc1       0.1234 # average power of dispatch unit per cycle_cc1
avg_issue_power_cc1          4.9362 # average power of issue unit per cycle_cc1
total_power_cycle_cc1  1427649493.0586 # total power per cycle_cc1
avg_total_power_cycle_cc1      11.7393 # average total power per cycle_cc1
avg_total_power_insn_cc1      14.2765 # average total power per insn_cc1
rename_power_cc2       10449137.1669 # total power usage of rename unit_cc2
bpred_power_cc2              0.0000 # total power usage of bpred unit_cc2
window_power_cc2       84566079.0986 # total power usage of instruction window_cc2
lsq_power_cc2          10968913.4695 # total power usage of lsq_cc2
regfile_power_cc2      37473699.3651 # total power usage of arch. regfile_cc2
icache_power_cc2       123242622.6713 # total power usage of icache_cc2
dcache_power_cc2       142879684.8700 # total power usage of dcache_cc2
dcache2_power_cc2      5836232.3106 # total power usage of dcache2_cc2
alu_power_cc2          116974126.0748 # total power usage of alu_cc2
resultbus_power_cc2    60376080.9475 # total power usage of resultbus_cc2
clock_power_cc2        387059541.9281 # total power usage of clock_cc2
avg_rename_power_cc2         0.0859 # avg power usage of rename unit_cc2
avg_bpred_power_cc2          0.0000 # avg power usage of bpred unit_cc2
avg_window_power_cc2         0.6954 # avg power usage of instruction window_cc2
avg_lsq_power_cc2            0.0902 # avg power usage of instruction lsq_cc2
avg_regfile_power_cc2        0.3081 # avg power usage of arch. regfile_cc2
avg_icache_power_cc2         1.0134 # avg power usage of icache_cc2
avg_dcache_power_cc2         1.1749 # avg power usage of dcache_cc2
avg_dcache2_power_cc2        0.0480 # avg power usage of dcache2_cc2
avg_alu_power_cc2            0.9619 # avg power usage of alu_cc2
avg_resultbus_power_cc2       0.4965 # avg power usage of resultbus_cc2
avg_clock_power_cc2          3.1827 # avg power usage of clock_cc2
fetch_stage_power_cc2  123242622.6713 # total power usage of fetch stage_cc2
dispatch_stage_power_cc2 10449137.1669 # total power usage of dispatch stage_cc2
issue_stage_power_cc2  421601116.7711 # total power usage of issue stage_cc2
avg_fetch_power_cc2          1.0134 # average power of fetch unit per cycle_cc2
avg_dispatch_power_cc2       0.0859 # average power of dispatch unit per cycle_cc2
avg_issue_power_cc2          3.4668 # average power of issue unit per cycle_cc2
total_power_cycle_cc2  979826117.9025 # total power per cycle_cc2
avg_total_power_cycle_cc2       8.0570 # average total power per cycle_cc2
avg_total_power_insn_cc2       9.7983 # average total power per insn_cc2
rename_power_cc3       14031630.1766 # total power usage of rename unit_cc3
bpred_power_cc3        40575861.7191 # total power usage of bpred unit_cc3
window_power_cc3       101219217.8636 # total power usage of instruction window_cc3
lsq_power_cc3          21070863.2410 # total power usage of lsq_cc3
regfile_power_cc3      66774798.3704 # total power usage of arch. regfile_cc3
icache_power_cc3       147798109.2545 # total power usage of icache_cc3
dcache_power_cc3       203285182.5157 # total power usage of dcache_cc3
dcache2_power_cc3      42526340.2876 # total power usage of dcache2_cc3
alu_power_cc3          327972065.6091 # total power usage of alu_cc3
resultbus_power_cc3    78518568.2007 # total power usage of resultbus_cc3
clock_power_cc3        661992476.9044 # total power usage of clock_cc3
avg_rename_power_cc3         0.1154 # avg power usage of rename unit_cc3
avg_bpred_power_cc3          0.3336 # avg power usage of bpred unit_cc3
avg_window_power_cc3         0.8323 # avg power usage of instruction window_cc3
avg_lsq_power_cc3            0.1733 # avg power usage of instruction lsq_cc3
avg_regfile_power_cc3        0.5491 # avg power usage of arch. regfile_cc3
avg_icache_power_cc3         1.2153 # avg power usage of icache_cc3
avg_dcache_power_cc3         1.6716 # avg power usage of dcache_cc3
avg_dcache2_power_cc3        0.3497 # avg power usage of dcache2_cc3
avg_alu_power_cc3            2.6969 # avg power usage of alu_cc3
avg_resultbus_power_cc3       0.6456 # avg power usage of resultbus_cc3
avg_clock_power_cc3          5.4435 # avg power usage of clock_cc3
fetch_stage_power_cc3  188373970.9737 # total power usage of fetch stage_cc3
dispatch_stage_power_cc3 14031630.1766 # total power usage of dispatch stage_cc3
issue_stage_power_cc3  774592237.7176 # total power usage of issue stage_cc3
avg_fetch_power_cc3          1.5490 # average power of fetch unit per cycle_cc3
avg_dispatch_power_cc3       0.1154 # average power of dispatch unit per cycle_cc3
avg_issue_power_cc3          6.3693 # average power of issue unit per cycle_cc3
total_power_cycle_cc3  1705765114.1427 # total power per cycle_cc3
avg_total_power_cycle_cc3      14.0262 # average total power per cycle_cc3
avg_total_power_insn_cc3      17.0577 # average total power per insn_cc3
total_rename_access       100000000 # total number accesses of rename unit
total_bpred_access                0 # total number accesses of bpred unit
total_window_access       400397700 # total number accesses of instruction window
total_lsq_access           45200960 # total number accesses of load/store queue
total_regfile_access      142471626 # total number accesses of arch. regfile
total_icache_access       149606639 # total number accesses of icache
total_dcache_access        44381561 # total number accesses of dcache
total_dcache2_access        3761699 # total number accesses of dcache2
total_alu_access           99716951 # total number accesses of alu
total_resultbus_access    112121786 # total number accesses of resultbus
avg_rename_access            0.8223 # avg number accesses of rename unit
avg_bpred_access             0.0000 # avg number accesses of bpred unit
avg_window_access            3.2924 # avg number accesses of instruction window
avg_lsq_access               0.3717 # avg number accesses of lsq
avg_regfile_access           1.1715 # avg number accesses of arch. regfile
avg_icache_access            1.2302 # avg number accesses of icache
avg_dcache_access            0.3649 # avg number accesses of dcache
avg_dcache2_access           0.0309 # avg number accesses of dcache2
avg_alu_access               0.8200 # avg number accesses of alu
avg_resultbus_access         0.9220 # avg number accesses of resultbus
max_rename_access                 4 # max number accesses of rename unit
max_bpred_access                  0 # max number accesses of bpred unit
max_window_access                17 # max number accesses of instruction window
max_lsq_access                    6 # max number accesses of load/store queue
max_regfile_access               12 # max number accesses of arch. regfile
max_icache_access                 4 # max number accesses of icache
max_dcache_access                 4 # max number accesses of dcache
max_dcache2_access                5 # max number accesses of dcache2
max_alu_access                    4 # max number accesses of alu
max_resultbus_access              7 # max number accesses of resultbus
max_cycle_power_cc1         45.6956 # maximum cycle power usage of cc1
max_cycle_power_cc2         29.6054 # maximum cycle power usage of cc2
max_cycle_power_cc3         33.6663 # maximum cycle power usage of cc3
sim_invalid_addrs                 0 # total non-speculative bogus addresses seen (debug var)
ld_text_base           0x0120000000 # program text (code) segment base
ld_text_size                 819200 # program text (code) size in bytes
ld_data_base           0x0140000000 # program initialized data segment base
ld_data_size                 118976 # program init'ed `.data' and uninit'ed `.bss' size in bytes
ld_stack_base          0x011ff9b000 # program stack segment base (highest address in stack)
ld_stack_size                 16384 # program initial stack size
ld_prog_entry          0x012005fcd0 # program entry point (initial PC)
ld_environ_base        0x011ff95d20 # program environment base address address
ld_target_big_endian              0 # target executable endian-ness, non-zero if big endian
mem.page_count                 8034 # total number of pages allocated
mem.page_mem                 64272k # total size of memory pages allocated
mem.ptab_misses               13158 # total first level page table misses
mem.ptab_accesses        1005507706 # total page table accesses
mem.ptab_miss_rate           0.0000 # first level page table miss rate

