sim-outorder: SimpleScalar/Alpha Tool Set version 3.0 of August, 2003.
Copyright (c) 1994-2003 by Todd M. Austin, Ph.D. and SimpleScalar, LLC.
All Rights Reserved. This version of SimpleScalar is licensed for academic
non-commercial use.  No portion of this work may be used by any commercial
entity, or for any commercial purpose, without the prior written permission
of SimpleScalar, LLC (info@simplescalar.com).


Processor Parameters:
Issue Width: 16
Window Size: 128
Number of Virtual Registers: 32
Number of Physical Registers: 128
Datapath Width: 64
Total Power Consumption: 292.691
Branch Predictor Power Consumption: 2.84842  (0.98%)
 branch target buffer power (W): 2.49493
 local predict power (W): 0.0867068
 global predict power (W): 0.0996078
 chooser power (W): 0.0702439
 RAS power (W): 0.0969383
Rename Logic Power Consumption: 3.68501  (1.27%)
 Instruction Decode Power (W): 0.0639661
 RAT decode_power (W): 0.454058
 RAT wordline_power (W): 0.257408
 RAT bitline_power (W): 2.69143
 DCL Comparators (W): 0.218151
Instruction Window Power Consumption: 76.4406  (26.3%)
 tagdrive (W): 6.64903
 tagmatch (W): 2.27024
 Selection Logic (W): 0.461706
 decode_power (W): 2.17466
 wordline_power (W): 1.0557
 bitline_power (W): 63.8292
Load/Store Queue Power Consumption: 10.6211  (3.65%)
 tagdrive (W): 4.52311
 tagmatch (W): 1.71883
 decode_power (W): 0.162764
 wordline_power (W): 0.0433172
 bitline_power (W): 4.1731
Arch. Register File Power Consumption: 25.1387  (8.65%)
 decode_power (W): 0.454058
 wordline_power (W): 1.0557
 bitline_power (W): 23.629
Result Bus Power Consumption: 55.6861  (19.2%)
Total Clock Power: 64.0353  (22%)
Int ALU Power: 4.66013  (1.6%)
FP ALU Power: 28.5621  (9.83%)
Instruction Cache Power Consumption: 2.76773  (0.952%)
 decode_power (W): 0.151353
 wordline_power (W): 0.180479
 bitline_power (W): 1.42251
 senseamp_power (W): 0.768
 tagarray_power (W): 0.245382
Itlb_power (W): 0.264936 (0.0911%)
Data Cache Power Consumption: 11.0709  (3.81%)
 decode_power (W): 0.60541
 wordline_power (W): 0.721917
 bitline_power (W): 5.69006
 senseamp_power (W): 3.072
 tagarray_power (W): 0.981529
Dtlb_power (W): 1.80688 (0.622%)
Level 2 Cache Power Consumption: 3.10298 (1.07%)
 decode_power (W): 0.19487
 wordline_power (W): 0.0430878
 bitline_power (W): 1.77274
 senseamp_power (W): 0.192
 tagarray_power (W): 0.900275
sim: loading EIO file: ../benchmarks/197.parser.spec_ref.eio.gz
sim: command line: ./sim-outorder -config ../configs/current.config ../benchmarks/197.parser.spec_ref.eio.gz 

sim: simulation started @ Tue Nov 24 12:27:02 2015, options follow:

sim-outorder: This simulator implements a very detailed out-of-order issue
superscalar processor with a two-level memory system and speculative
execution support.  This simulator is a performance simulator, tracking the
latency of all pipeline operations.

# -config                     # load configuration from a file
# -dumpconfig                 # dump configuration to a file
# -h                    false # print help message    
# -v                    false # verbose operation     
# -d                    false # enable debug message  
# -i                    false # start in Dlite debugger
-seed                       1 # random number generator seed (0 for timer seed)
# -q                    false # initialize and terminate immediately
# -chkpt               <null> # restore EIO trace execution from <fname>
# -redir:sim     ../results/26_23_ruu/197.parser.spec_ref.eio.gz.out # redirect simulator output to file (non-interactive only)
# -redir:prog       /dev/null # redirect simulated program output to file
-nice                       0 # simulator scheduling priority
-freq            600000000.0000 # frequency             
-max:inst           100000000 # maximum number of inst's to execute
-fastfwd                    0 # number of insts skipped before timing starts
# -ptrace              <null> # generate pipetrace, i.e., <fname|stdout|stderr> <range>
-fetch:ifqsize             16 # instruction fetch queue size (in insts)
-fetch:mplat               15 # extra branch mis-prediction latency
-fetch:speed                1 # speed of front-end of machine relative to execution core
-bpred                perfect # branch predictor type {nottaken|taken|perfect|bimod|2lev|comb}
-bpred:bimod     2048 # bimodal predictor config (<table size>)
-bpred:2lev      1 1024 4 0 # 2-level predictor config (<l1size> <l2size> <hist_size> <xor>)
-bpred:comb      1024 # combining predictor config (<meta_table_size>)
-bpred:ras                  8 # return address stack size (0 for no return stack)
-bpred:btb       512 4 # BTB config (<num_sets> <associativity>)
# -bpred:spec_update       <null> # speculative predictors update in {ID|WB} (default non-spec)
-decode:width              16 # instruction decode B/W (insts/cycle)
-issue:width               16 # instruction issue B/W (insts/cycle)
-issue:inorder          false # run pipeline with in-order issue
-issue:wrongpath         true # issue instructions down wrong execution paths
-commit:width              16 # instruction commit B/W (insts/cycle)
-ruu:size                 128 # register update unit (RUU) size
-lsq:size                  64 # load/store queue (LSQ) size
-cache:dl1       dl1:32:64:8:f # l1 data cache config, i.e., {<config>|none}
-cache:dl1lat               1 # l1 data cache hit latency (in cycles)
-cache:dl2       dl2:256:64:8:f # l2 data cache config, i.e., {<config>|none}
-cache:dl2lat               2 # l2 data cache hit latency (in cycles)
-cache:il1       il1:32:64:8:f # l1 inst cache config, i.e., {<config>|dl1|dl2|none}
-cache:il1lat               1 # l1 instruction cache hit latency (in cycles)
-cache:il2                dl2 # l2 instruction cache config, i.e., {<config>|dl2|none}
-cache:il2lat               2 # l2 instruction cache hit latency (in cycles)
-cache:flush            false # flush caches on system calls
-cache:icompress        false # convert 64-bit inst addresses to 32-bit inst equivalents
-mem:lat         103 1 # memory access latency (<first_chunk> <inter_chunk>)
-mem:width                  8 # memory access bus width (in bytes)
-tlb:itlb        itlb:16:4096:4:l # instruction TLB config, i.e., {<config>|none}
-tlb:dtlb        dtlb:32:4096:4:l # data TLB config, i.e., {<config>|none}
-tlb:lat                   30 # inst/data TLB miss latency (in cycles)
-res:ialu                   4 # total number of integer ALU's available
-res:imult                  2 # total number of integer multiplier/dividers available
-res:memport                4 # total number of memory system ports available (to CPU)
-res:fpalu                  8 # total number of floating point ALU's available
-res:fpmult                 2 # total number of floating point multiplier/dividers available
# -pcstat              <null> # profile stat(s) against text addr's (mult uses ok)
-bugcompat              false # operate in backward-compatible bugs mode (for testing only)

  Pipetrace range arguments are formatted as follows:

    {{@|#}<start>}:{{@|#|+}<end>}

  Both ends of the range are optional, if neither are specified, the entire
  execution is traced.  Ranges that start with a `@' designate an address
  range to be traced, those that start with an `#' designate a cycle count
  range.  All other range values represent an instruction count range.  The
  second argument, if specified with a `+', indicates a value relative
  to the first argument, e.g., 1000:+100 == 1000:1100.  Program symbols may
  be used in all contexts.

    Examples:   -ptrace FOO.trc #0:#1000
                -ptrace BAR.trc @2000:
                -ptrace BLAH.trc :1500
                -ptrace UXXE.trc :
                -ptrace FOOBAR.trc @main:+278

  Branch predictor configuration examples for 2-level predictor:
    Configurations:   N, M, W, X
      N   # entries in first level (# of shift register(s))
      W   width of shift register(s)
      M   # entries in 2nd level (# of counters, or other FSM)
      X   (yes-1/no-0) xor history and address for 2nd level index
    Sample predictors:
      GAg     : 1, W, 2^W, 0
      GAp     : 1, W, M (M > 2^W), 0
      PAg     : N, W, 2^W, 0
      PAp     : N, W, M (M == 2^(N+W)), 0
      gshare  : 1, W, 2^W, 1
  Predictor `comb' combines a bimodal and a 2-level predictor.

  The cache config parameter <config> has the following format:

    <name>:<nsets>:<bsize>:<assoc>:<repl>

    <name>   - name of the cache being defined
    <nsets>  - number of sets in the cache
    <bsize>  - block size of the cache
    <assoc>  - associativity of the cache
    <repl>   - block replacement strategy, 'l'-LRU, 'f'-FIFO, 'r'-random

    Examples:   -cache:dl1 dl1:4096:32:1:l
                -dtlb dtlb:128:4096:32:r

  Cache levels can be unified by pointing a level of the instruction cache
  hierarchy at the data cache hiearchy using the "dl1" and "dl2" cache
  configuration arguments.  Most sensible combinations are supported, e.g.,

    A unified l2 cache (il2 is pointed at dl2):
      -cache:il1 il1:128:64:1:l -cache:il2 dl2
      -cache:dl1 dl1:256:32:1:l -cache:dl2 ul2:1024:64:2:l

    Or, a fully unified cache hierarchy (il1 pointed at dl1):
      -cache:il1 dl1
      -cache:dl1 ul1:256:32:1:l -cache:dl2 ul2:1024:64:2:l



sim: ** starting performance simulation **

sim: ** simulation statistics **
sim_num_insn              100000000 # total number of instructions committed
sim_num_refs               36930324 # total number of loads and stores committed
sim_num_loads              27152726 # total number of loads committed
sim_num_stores         9777598.0000 # total number of stores committed
sim_num_branches           15299216 # total number of branches committed
sim_elapsed_time                171 # total simulation time in seconds
sim_inst_rate           584795.3216 # simulation speed (in insts/sec)
sim_total_insn            100000000 # total number of instructions executed
sim_total_refs             36930324 # total number of loads and stores executed
sim_total_loads            27152726 # total number of loads executed
sim_total_stores       9777598.0000 # total number of stores executed
sim_total_branches         15299216 # total number of branches executed
sim_cycle                  72799359 # total simulation time in cycles
sim_IPC                      1.3736 # instructions per cycle
sim_CPI                      0.7280 # cycles per instruction
sim_exec_BW                  1.3736 # total instructions (mis-spec + committed) per cycle
sim_IPB                      6.5363 # instruction per branch
IFQ_count                1155730192 # cumulative IFQ occupancy
IFQ_fcount                 72227581 # cumulative IFQ full count
ifq_occupancy               15.8756 # avg IFQ occupancy (insn's)
ifq_rate                     1.3736 # avg IFQ dispatch rate (insn/cycle)
ifq_latency                 11.5573 # avg IFQ occupant latency (cycle's)
ifq_full                     0.9921 # fraction of time (cycle's) IFQ was full
RUU_count                9024413943 # cumulative RUU occupancy
RUU_fcount                 55203269 # cumulative RUU full count
ruu_occupancy              123.9628 # avg RUU occupancy (insn's)
ruu_rate                     1.3736 # avg RUU dispatch rate (insn/cycle)
ruu_latency                 90.2441 # avg RUU occupant latency (cycle's)
ruu_full                     0.7583 # fraction of time (cycle's) RUU was full
LSQ_count                3128941026 # cumulative LSQ occupancy
LSQ_fcount                  8036404 # cumulative LSQ full count
lsq_occupancy               42.9803 # avg LSQ occupancy (insn's)
lsq_rate                     1.3736 # avg LSQ dispatch rate (insn/cycle)
lsq_latency                 31.2894 # avg LSQ occupant latency (cycle's)
lsq_full                     0.1104 # fraction of time (cycle's) LSQ was full
sim_slip                12290282764 # total number of slip cycles
avg_sim_slip               122.9028 # the average slip between issue and retirement
il1.accesses              213404543 # total number of accesses
il1.hits                  213399216 # total number of hits
il1.misses                     5327 # total number of misses
il1.replacements               5071 # total number of replacements
il1.writebacks                    0 # total number of writebacks
il1.invalidations                 0 # total number of invalidations
il1.miss_rate                0.0000 # miss rate (i.e., misses/ref)
il1.repl_rate                0.0000 # replacement rate (i.e., repls/ref)
il1.wb_rate                  0.0000 # writeback rate (i.e., wrbks/ref)
il1.inv_rate                 0.0000 # invalidation rate (i.e., invs/ref)
dl1.accesses               33738136 # total number of accesses
dl1.hits                   32418618 # total number of hits
dl1.misses                  1319518 # total number of misses
dl1.replacements            1319262 # total number of replacements
dl1.writebacks               461910 # total number of writebacks
dl1.invalidations                 0 # total number of invalidations
dl1.miss_rate                0.0391 # miss rate (i.e., misses/ref)
dl1.repl_rate                0.0391 # replacement rate (i.e., repls/ref)
dl1.wb_rate                  0.0137 # writeback rate (i.e., wrbks/ref)
dl1.inv_rate                 0.0000 # invalidation rate (i.e., invs/ref)
dl2.accesses                1786755 # total number of accesses
dl2.hits                    1156535 # total number of hits
dl2.misses                   630220 # total number of misses
dl2.replacements             628172 # total number of replacements
dl2.writebacks               328773 # total number of writebacks
dl2.invalidations                 0 # total number of invalidations
dl2.miss_rate                0.3527 # miss rate (i.e., misses/ref)
dl2.repl_rate                0.3516 # replacement rate (i.e., repls/ref)
dl2.wb_rate                  0.1840 # writeback rate (i.e., wrbks/ref)
dl2.inv_rate                 0.0000 # invalidation rate (i.e., invs/ref)
itlb.accesses             213404543 # total number of accesses
itlb.hits                 213404504 # total number of hits
itlb.misses                      39 # total number of misses
itlb.replacements                 0 # total number of replacements
itlb.writebacks                   0 # total number of writebacks
itlb.invalidations                0 # total number of invalidations
itlb.miss_rate               0.0000 # miss rate (i.e., misses/ref)
itlb.repl_rate               0.0000 # replacement rate (i.e., repls/ref)
itlb.wb_rate                 0.0000 # writeback rate (i.e., wrbks/ref)
itlb.inv_rate                0.0000 # invalidation rate (i.e., invs/ref)
dtlb.accesses              36930322 # total number of accesses
dtlb.hits                  36883687 # total number of hits
dtlb.misses                   46635 # total number of misses
dtlb.replacements             46507 # total number of replacements
dtlb.writebacks                   0 # total number of writebacks
dtlb.invalidations                0 # total number of invalidations
dtlb.miss_rate               0.0013 # miss rate (i.e., misses/ref)
dtlb.repl_rate               0.0013 # replacement rate (i.e., repls/ref)
dtlb.wb_rate                 0.0000 # writeback rate (i.e., wrbks/ref)
dtlb.inv_rate                0.0000 # invalidation rate (i.e., invs/ref)
rename_power           268266688.6094 # total power usage of rename unit
bpred_power            207363490.3188 # total power usage of bpred unit
window_power           5564825112.2718 # total power usage of instruction window
lsq_power              773210601.7606 # total power usage of load/store queue
regfile_power          1830084353.5522 # total power usage of arch. regfile
icache_power           220776008.9701 # total power usage of icache
dcache_power           937495304.2509 # total power usage of dcache
dcache2_power          225894719.8282 # total power usage of dcache2
alu_power              2418556348.2446 # total power usage of alu
falu_power             2079301837.6005 # total power usage of falu
resultbus_power        4053909374.7453 # total power usage of resultbus
clock_power            4661731929.7323 # total power usage of clock
avg_rename_power             3.6850 # avg power usage of rename unit
avg_bpred_power              2.8484 # avg power usage of bpred unit
avg_window_power            76.4406 # avg power usage of instruction window
avg_lsq_power               10.6211 # avg power usage of lsq
avg_regfile_power           25.1387 # avg power usage of arch. regfile
avg_icache_power             3.0327 # avg power usage of icache
avg_dcache_power            12.8778 # avg power usage of dcache
avg_dcache2_power            3.1030 # avg power usage of dcache2
avg_alu_power               33.2222 # avg power usage of alu
avg_falu_power              28.5621 # avg power usage of falu
avg_resultbus_power         55.6861 # avg power usage of resultbus
avg_clock_power             64.0353 # avg power usage of clock
fetch_stage_power      428139499.2889 # total power usage of fetch stage
dispatch_stage_power   268266688.6094 # total power usage of dispatch stage
issue_stage_power      13973891461.1014 # total power usage of issue stage
avg_fetch_power              5.8811 # average power of fetch unit per cycle
avg_dispatch_power           3.6850 # average power of dispatch unit per cycle
avg_issue_power            191.9507 # average power of issue unit per cycle
total_power            21162113932.2842 # total power per cycle
avg_total_power_cycle      290.6909 # average total power per cycle
avg_total_power_cycle_nofp_nod2     259.0259 # average total power per cycle
avg_total_power_insn       211.6211 # average total power per insn
avg_total_power_insn_nofp_nod2     188.5692 # average total power per insn
rename_power_cc1       95350688.2518 # total power usage of rename unit_cc1
bpred_power_cc1              0.0000 # total power usage of bpred unit_cc1
window_power_cc1       2209143068.1464 # total power usage of instruction window_cc1
lsq_power_cc1          125087547.9863 # total power usage of lsq_cc1
regfile_power_cc1      575484775.6526 # total power usage of arch. regfile_cc1
icache_power_cc1       78474637.9478 # total power usage of icache_cc1
dcache_power_cc1       211299767.2017 # total power usage of dcache_cc1
dcache2_power_cc1      3905501.2062 # total power usage of dcache2_cc1
alu_power_cc1          147853997.0682 # total power usage of alu_cc1
resultbus_power_cc1    1664473480.4239 # total power usage of resultbus_cc1
clock_power_cc1        1025987987.1686 # total power usage of clock_cc1
avg_rename_power_cc1         1.3098 # avg power usage of rename unit_cc1
avg_bpred_power_cc1          0.0000 # avg power usage of bpred unit_cc1
avg_window_power_cc1        30.3456 # avg power usage of instruction window_cc1
avg_lsq_power_cc1            1.7183 # avg power usage of lsq_cc1
avg_regfile_power_cc1        7.9051 # avg power usage of arch. regfile_cc1
avg_icache_power_cc1         1.0780 # avg power usage of icache_cc1
avg_dcache_power_cc1         2.9025 # avg power usage of dcache_cc1
avg_dcache2_power_cc1        0.0536 # avg power usage of dcache2_cc1
avg_alu_power_cc1            2.0310 # avg power usage of alu_cc1
avg_resultbus_power_cc1      22.8638 # avg power usage of resultbus_cc1
avg_clock_power_cc1         14.0934 # avg power usage of clock_cc1
fetch_stage_power_cc1  78474637.9478 # total power usage of fetch stage_cc1
dispatch_stage_power_cc1 95350688.2518 # total power usage of dispatch stage_cc1
issue_stage_power_cc1  4361763362.0326 # total power usage of issue stage_cc1
avg_fetch_power_cc1          1.0780 # average power of fetch unit per cycle_cc1
avg_dispatch_power_cc1       1.3098 # average power of dispatch unit per cycle_cc1
avg_issue_power_cc1         59.9149 # average power of issue unit per cycle_cc1
total_power_cycle_cc1  6137061451.0535 # total power per cycle_cc1
avg_total_power_cycle_cc1      84.3010 # average total power per cycle_cc1
avg_total_power_insn_cc1      61.3706 # average total power per insn_cc1
rename_power_cc2       23031340.2274 # total power usage of rename unit_cc2
bpred_power_cc2              0.0000 # total power usage of bpred unit_cc2
window_power_cc2       661389798.8346 # total power usage of instruction window_cc2
lsq_power_cc2          54301718.1830 # total power usage of lsq_cc2
regfile_power_cc2      50889966.0645 # total power usage of arch. regfile_cc2
icache_power_cc2       78474637.9478 # total power usage of icache_cc2
dcache_power_cc2       108618209.1654 # total power usage of dcache_cc2
dcache2_power_cc2      1386064.8156 # total power usage of dcache2_cc2
alu_power_cc2          116536530.0784 # total power usage of alu_cc2
resultbus_power_cc2    364961497.7927 # total power usage of resultbus_cc2
clock_power_cc2        305449324.2155 # total power usage of clock_cc2
avg_rename_power_cc2         0.3164 # avg power usage of rename unit_cc2
avg_bpred_power_cc2          0.0000 # avg power usage of bpred unit_cc2
avg_window_power_cc2         9.0851 # avg power usage of instruction window_cc2
avg_lsq_power_cc2            0.7459 # avg power usage of instruction lsq_cc2
avg_regfile_power_cc2        0.6990 # avg power usage of arch. regfile_cc2
avg_icache_power_cc2         1.0780 # avg power usage of icache_cc2
avg_dcache_power_cc2         1.4920 # avg power usage of dcache_cc2
avg_dcache2_power_cc2        0.0190 # avg power usage of dcache2_cc2
avg_alu_power_cc2            1.6008 # avg power usage of alu_cc2
avg_resultbus_power_cc2       5.0133 # avg power usage of resultbus_cc2
avg_clock_power_cc2          4.1958 # avg power usage of clock_cc2
fetch_stage_power_cc2  78474637.9478 # total power usage of fetch stage_cc2
dispatch_stage_power_cc2 23031340.2274 # total power usage of dispatch stage_cc2
issue_stage_power_cc2  1307193818.8696 # total power usage of issue stage_cc2
avg_fetch_power_cc2          1.0780 # average power of fetch unit per cycle_cc2
avg_dispatch_power_cc2       0.3164 # average power of dispatch unit per cycle_cc2
avg_issue_power_cc2         17.9561 # average power of issue unit per cycle_cc2
total_power_cycle_cc2  1765039087.3248 # total power per cycle_cc2
avg_total_power_cycle_cc2      24.2453 # average total power per cycle_cc2
avg_total_power_insn_cc2      17.6504 # average total power per insn_cc2
rename_power_cc3       40322940.3071 # total power usage of rename unit_cc3
bpred_power_cc3        20736349.0351 # total power usage of bpred unit_cc3
window_power_cc3       971515535.0124 # total power usage of instruction window_cc3
lsq_power_cc3          118568677.1348 # total power usage of lsq_cc3
regfile_power_cc3      170326156.1159 # total power usage of arch. regfile_cc3
icache_power_cc3       92704775.1490 # total power usage of icache_cc3
dcache_power_cc3       181606555.7398 # total power usage of dcache_cc3
dcache2_power_cc3      23585058.8063 # total power usage of dcache2_cc3
alu_power_cc3          343606764.5709 # total power usage of alu_cc3
resultbus_power_cc3    592808614.2611 # total power usage of resultbus_cc3
clock_power_cc3        661222041.2257 # total power usage of clock_cc3
avg_rename_power_cc3         0.5539 # avg power usage of rename unit_cc3
avg_bpred_power_cc3          0.2848 # avg power usage of bpred unit_cc3
avg_window_power_cc3        13.3451 # avg power usage of instruction window_cc3
avg_lsq_power_cc3            1.6287 # avg power usage of instruction lsq_cc3
avg_regfile_power_cc3        2.3397 # avg power usage of arch. regfile_cc3
avg_icache_power_cc3         1.2734 # avg power usage of icache_cc3
avg_dcache_power_cc3         2.4946 # avg power usage of dcache_cc3
avg_dcache2_power_cc3        0.3240 # avg power usage of dcache2_cc3
avg_alu_power_cc3            4.7199 # avg power usage of alu_cc3
avg_resultbus_power_cc3       8.1430 # avg power usage of resultbus_cc3
avg_clock_power_cc3          9.0828 # avg power usage of clock_cc3
fetch_stage_power_cc3  113441124.1841 # total power usage of fetch stage_cc3
dispatch_stage_power_cc3 40322940.3071 # total power usage of dispatch stage_cc3
issue_stage_power_cc3  2231691205.5252 # total power usage of issue stage_cc3
avg_fetch_power_cc3          1.5583 # average power of fetch unit per cycle_cc3
avg_dispatch_power_cc3       0.5539 # average power of dispatch unit per cycle_cc3
avg_issue_power_cc3         30.6554 # average power of issue unit per cycle_cc3
total_power_cycle_cc3  3217003467.3580 # total power per cycle_cc3
avg_total_power_cycle_cc3      44.1900 # average total power per cycle_cc3
avg_total_power_insn_cc3      32.1700 # average total power per insn_cc3
total_rename_access       100000000 # total number accesses of rename unit
total_bpred_access                0 # total number accesses of bpred unit
total_window_access       347673098 # total number accesses of instruction window
total_lsq_access           40122508 # total number accesses of load/store queue
total_regfile_access      107190810 # total number accesses of arch. regfile
total_icache_access       213404543 # total number accesses of icache
total_dcache_access        33738136 # total number accesses of dcache
total_dcache2_access        1786755 # total number accesses of dcache2
total_alu_access           99904043 # total number accesses of alu
total_resultbus_access    111853422 # total number accesses of resultbus
avg_rename_access            1.3736 # avg number accesses of rename unit
avg_bpred_access             0.0000 # avg number accesses of bpred unit
avg_window_access            4.7758 # avg number accesses of instruction window
avg_lsq_access               0.5511 # avg number accesses of lsq
avg_regfile_access           1.4724 # avg number accesses of arch. regfile
avg_icache_access            2.9314 # avg number accesses of icache
avg_dcache_access            0.4634 # avg number accesses of dcache
avg_dcache2_access           0.0245 # avg number accesses of dcache2
avg_alu_access               1.3723 # avg number accesses of alu
avg_resultbus_access         1.5365 # avg number accesses of resultbus
max_rename_access                16 # max number accesses of rename unit
max_bpred_access                  0 # max number accesses of bpred unit
max_window_access                42 # max number accesses of instruction window
max_lsq_access                   14 # max number accesses of load/store queue
max_regfile_access               33 # max number accesses of arch. regfile
max_icache_access                16 # max number accesses of icache
max_dcache_access                 8 # max number accesses of dcache
max_dcache2_access                8 # max number accesses of dcache2
max_alu_access                    7 # max number accesses of alu
max_resultbus_access             20 # max number accesses of resultbus
max_cycle_power_cc1        244.7985 # maximum cycle power usage of cc1
max_cycle_power_cc2        143.1950 # maximum cycle power usage of cc2
max_cycle_power_cc3        152.0031 # maximum cycle power usage of cc3
sim_invalid_addrs                 0 # total non-speculative bogus addresses seen (debug var)
ld_text_base           0x0120000000 # program text (code) segment base
ld_text_size                 319488 # program text (code) size in bytes
ld_data_base           0x0140000000 # program initialized data segment base
ld_data_size                 288480 # program init'ed `.data' and uninit'ed `.bss' size in bytes
ld_stack_base          0x011ff9b000 # program stack segment base (highest address in stack)
ld_stack_size                 16384 # program initial stack size
ld_prog_entry          0x012001e99c # program entry point (initial PC)
ld_environ_base        0x011ff966c0 # program environment base address address
ld_target_big_endian              0 # target executable endian-ness, non-zero if big endian
mem.page_count                 4714 # total number of pages allocated
mem.page_mem                 37712k # total size of memory pages allocated
mem.ptab_misses               30982 # total first level page table misses
mem.ptab_accesses        1007188060 # total page table accesses
mem.ptab_miss_rate           0.0000 # first level page table miss rate

