sim-outorder: SimpleScalar/Alpha Tool Set version 3.0 of August, 2003.
Copyright (c) 1994-2003 by Todd M. Austin, Ph.D. and SimpleScalar, LLC.
All Rights Reserved. This version of SimpleScalar is licensed for academic
non-commercial use.  No portion of this work may be used by any commercial
entity, or for any commercial purpose, without the prior written permission
of SimpleScalar, LLC (info@simplescalar.com).


Processor Parameters:
Issue Width: 16
Window Size: 128
Number of Virtual Registers: 32
Number of Physical Registers: 128
Datapath Width: 64
Total Power Consumption: 292.691
Branch Predictor Power Consumption: 2.84842  (0.98%)
 branch target buffer power (W): 2.49493
 local predict power (W): 0.0867068
 global predict power (W): 0.0996078
 chooser power (W): 0.0702439
 RAS power (W): 0.0969383
Rename Logic Power Consumption: 3.68501  (1.27%)
 Instruction Decode Power (W): 0.0639661
 RAT decode_power (W): 0.454058
 RAT wordline_power (W): 0.257408
 RAT bitline_power (W): 2.69143
 DCL Comparators (W): 0.218151
Instruction Window Power Consumption: 76.4406  (26.3%)
 tagdrive (W): 6.64903
 tagmatch (W): 2.27024
 Selection Logic (W): 0.461706
 decode_power (W): 2.17466
 wordline_power (W): 1.0557
 bitline_power (W): 63.8292
Load/Store Queue Power Consumption: 10.6211  (3.65%)
 tagdrive (W): 4.52311
 tagmatch (W): 1.71883
 decode_power (W): 0.162764
 wordline_power (W): 0.0433172
 bitline_power (W): 4.1731
Arch. Register File Power Consumption: 25.1387  (8.65%)
 decode_power (W): 0.454058
 wordline_power (W): 1.0557
 bitline_power (W): 23.629
Result Bus Power Consumption: 55.6861  (19.2%)
Total Clock Power: 64.0353  (22%)
Int ALU Power: 4.66013  (1.6%)
FP ALU Power: 28.5621  (9.83%)
Instruction Cache Power Consumption: 2.76773  (0.952%)
 decode_power (W): 0.151353
 wordline_power (W): 0.180479
 bitline_power (W): 1.42251
 senseamp_power (W): 0.768
 tagarray_power (W): 0.245382
Itlb_power (W): 0.264936 (0.0911%)
Data Cache Power Consumption: 11.0709  (3.81%)
 decode_power (W): 0.60541
 wordline_power (W): 0.721917
 bitline_power (W): 5.69006
 senseamp_power (W): 3.072
 tagarray_power (W): 0.981529
Dtlb_power (W): 1.80688 (0.622%)
Level 2 Cache Power Consumption: 3.10298 (1.07%)
 decode_power (W): 0.19487
 wordline_power (W): 0.0430878
 bitline_power (W): 1.77274
 senseamp_power (W): 0.192
 tagarray_power (W): 0.900275
sim: loading EIO file: ../benchmarks/253.perlbmk.perfect-ref.eio.gz
sim: command line: ./sim-outorder -config ../configs/current.config ../benchmarks/253.perlbmk.perfect-ref.eio.gz 

sim: simulation started @ Tue Nov 24 12:27:00 2015, options follow:

sim-outorder: This simulator implements a very detailed out-of-order issue
superscalar processor with a two-level memory system and speculative
execution support.  This simulator is a performance simulator, tracking the
latency of all pipeline operations.

# -config                     # load configuration from a file
# -dumpconfig                 # dump configuration to a file
# -h                    false # print help message    
# -v                    false # verbose operation     
# -d                    false # enable debug message  
# -i                    false # start in Dlite debugger
-seed                       1 # random number generator seed (0 for timer seed)
# -q                    false # initialize and terminate immediately
# -chkpt               <null> # restore EIO trace execution from <fname>
# -redir:sim     ../results/26_23_ruu/253.perlbmk.perfect-ref.eio.gz.out # redirect simulator output to file (non-interactive only)
# -redir:prog       /dev/null # redirect simulated program output to file
-nice                       0 # simulator scheduling priority
-freq            600000000.0000 # frequency             
-max:inst           100000000 # maximum number of inst's to execute
-fastfwd                    0 # number of insts skipped before timing starts
# -ptrace              <null> # generate pipetrace, i.e., <fname|stdout|stderr> <range>
-fetch:ifqsize             16 # instruction fetch queue size (in insts)
-fetch:mplat               15 # extra branch mis-prediction latency
-fetch:speed                1 # speed of front-end of machine relative to execution core
-bpred                perfect # branch predictor type {nottaken|taken|perfect|bimod|2lev|comb}
-bpred:bimod     2048 # bimodal predictor config (<table size>)
-bpred:2lev      1 1024 4 0 # 2-level predictor config (<l1size> <l2size> <hist_size> <xor>)
-bpred:comb      1024 # combining predictor config (<meta_table_size>)
-bpred:ras                  8 # return address stack size (0 for no return stack)
-bpred:btb       512 4 # BTB config (<num_sets> <associativity>)
# -bpred:spec_update       <null> # speculative predictors update in {ID|WB} (default non-spec)
-decode:width              16 # instruction decode B/W (insts/cycle)
-issue:width               16 # instruction issue B/W (insts/cycle)
-issue:inorder          false # run pipeline with in-order issue
-issue:wrongpath         true # issue instructions down wrong execution paths
-commit:width              16 # instruction commit B/W (insts/cycle)
-ruu:size                 128 # register update unit (RUU) size
-lsq:size                  64 # load/store queue (LSQ) size
-cache:dl1       dl1:32:64:8:f # l1 data cache config, i.e., {<config>|none}
-cache:dl1lat               1 # l1 data cache hit latency (in cycles)
-cache:dl2       dl2:256:64:8:f # l2 data cache config, i.e., {<config>|none}
-cache:dl2lat               2 # l2 data cache hit latency (in cycles)
-cache:il1       il1:32:64:8:f # l1 inst cache config, i.e., {<config>|dl1|dl2|none}
-cache:il1lat               1 # l1 instruction cache hit latency (in cycles)
-cache:il2                dl2 # l2 instruction cache config, i.e., {<config>|dl2|none}
-cache:il2lat               2 # l2 instruction cache hit latency (in cycles)
-cache:flush            false # flush caches on system calls
-cache:icompress        false # convert 64-bit inst addresses to 32-bit inst equivalents
-mem:lat         103 1 # memory access latency (<first_chunk> <inter_chunk>)
-mem:width                  8 # memory access bus width (in bytes)
-tlb:itlb        itlb:16:4096:4:l # instruction TLB config, i.e., {<config>|none}
-tlb:dtlb        dtlb:32:4096:4:l # data TLB config, i.e., {<config>|none}
-tlb:lat                   30 # inst/data TLB miss latency (in cycles)
-res:ialu                   4 # total number of integer ALU's available
-res:imult                  2 # total number of integer multiplier/dividers available
-res:memport                4 # total number of memory system ports available (to CPU)
-res:fpalu                  8 # total number of floating point ALU's available
-res:fpmult                 2 # total number of floating point multiplier/dividers available
# -pcstat              <null> # profile stat(s) against text addr's (mult uses ok)
-bugcompat              false # operate in backward-compatible bugs mode (for testing only)

  Pipetrace range arguments are formatted as follows:

    {{@|#}<start>}:{{@|#|+}<end>}

  Both ends of the range are optional, if neither are specified, the entire
  execution is traced.  Ranges that start with a `@' designate an address
  range to be traced, those that start with an `#' designate a cycle count
  range.  All other range values represent an instruction count range.  The
  second argument, if specified with a `+', indicates a value relative
  to the first argument, e.g., 1000:+100 == 1000:1100.  Program symbols may
  be used in all contexts.

    Examples:   -ptrace FOO.trc #0:#1000
                -ptrace BAR.trc @2000:
                -ptrace BLAH.trc :1500
                -ptrace UXXE.trc :
                -ptrace FOOBAR.trc @main:+278

  Branch predictor configuration examples for 2-level predictor:
    Configurations:   N, M, W, X
      N   # entries in first level (# of shift register(s))
      W   width of shift register(s)
      M   # entries in 2nd level (# of counters, or other FSM)
      X   (yes-1/no-0) xor history and address for 2nd level index
    Sample predictors:
      GAg     : 1, W, 2^W, 0
      GAp     : 1, W, M (M > 2^W), 0
      PAg     : N, W, 2^W, 0
      PAp     : N, W, M (M == 2^(N+W)), 0
      gshare  : 1, W, 2^W, 1
  Predictor `comb' combines a bimodal and a 2-level predictor.

  The cache config parameter <config> has the following format:

    <name>:<nsets>:<bsize>:<assoc>:<repl>

    <name>   - name of the cache being defined
    <nsets>  - number of sets in the cache
    <bsize>  - block size of the cache
    <assoc>  - associativity of the cache
    <repl>   - block replacement strategy, 'l'-LRU, 'f'-FIFO, 'r'-random

    Examples:   -cache:dl1 dl1:4096:32:1:l
                -dtlb dtlb:128:4096:32:r

  Cache levels can be unified by pointing a level of the instruction cache
  hierarchy at the data cache hiearchy using the "dl1" and "dl2" cache
  configuration arguments.  Most sensible combinations are supported, e.g.,

    A unified l2 cache (il2 is pointed at dl2):
      -cache:il1 il1:128:64:1:l -cache:il2 dl2
      -cache:dl1 dl1:256:32:1:l -cache:dl2 ul2:1024:64:2:l

    Or, a fully unified cache hierarchy (il1 pointed at dl1):
      -cache:il1 dl1
      -cache:dl1 ul1:256:32:1:l -cache:dl2 ul2:1024:64:2:l



sim: ** starting performance simulation **

sim: ** simulation statistics **
sim_num_insn              100000008 # total number of instructions committed
sim_num_refs               46911515 # total number of loads and stores committed
sim_num_loads              35114078 # total number of loads committed
sim_num_stores         11797437.0000 # total number of stores committed
sim_num_branches           13244302 # total number of branches committed
sim_elapsed_time                134 # total simulation time in seconds
sim_inst_rate           746268.7164 # simulation speed (in insts/sec)
sim_total_insn            100000008 # total number of instructions executed
sim_total_refs             46911515 # total number of loads and stores executed
sim_total_loads            35114078 # total number of loads executed
sim_total_stores       11797437.0000 # total number of stores executed
sim_total_branches         13244302 # total number of branches executed
sim_cycle                  24829726 # total simulation time in cycles
sim_IPC                      4.0274 # instructions per cycle
sim_CPI                      0.2483 # cycles per instruction
sim_exec_BW                  4.0274 # total instructions (mis-spec + committed) per cycle
sim_IPB                      7.5504 # instruction per branch
IFQ_count                 397126104 # cumulative IFQ occupancy
IFQ_fcount                 24820156 # cumulative IFQ full count
ifq_occupancy               15.9940 # avg IFQ occupancy (insn's)
ifq_rate                     4.0274 # avg IFQ dispatch rate (insn/cycle)
ifq_latency                  3.9713 # avg IFQ occupant latency (cycle's)
ifq_full                     0.9996 # fraction of time (cycle's) IFQ was full
RUU_count                3070613934 # cumulative RUU occupancy
RUU_fcount                 10963037 # cumulative RUU full count
ruu_occupancy              123.6668 # avg RUU occupancy (insn's)
ruu_rate                     4.0274 # avg RUU dispatch rate (insn/cycle)
ruu_latency                 30.7061 # avg RUU occupant latency (cycle's)
ruu_full                     0.4415 # fraction of time (cycle's) RUU was full
LSQ_count                1439566182 # cumulative LSQ occupancy
LSQ_fcount                  4341732 # cumulative LSQ full count
lsq_occupancy               57.9775 # avg LSQ occupancy (insn's)
lsq_rate                     4.0274 # avg LSQ dispatch rate (insn/cycle)
lsq_latency                 14.3957 # avg LSQ occupant latency (cycle's)
lsq_full                     0.1749 # fraction of time (cycle's) LSQ was full
sim_slip                 4657088940 # total number of slip cycles
avg_sim_slip                46.5709 # the average slip between issue and retirement
il1.accesses              219420899 # total number of accesses
il1.hits                  219420812 # total number of hits
il1.misses                       87 # total number of misses
il1.replacements                  0 # total number of replacements
il1.writebacks                    0 # total number of writebacks
il1.invalidations                 0 # total number of invalidations
il1.miss_rate                0.0000 # miss rate (i.e., misses/ref)
il1.repl_rate                0.0000 # replacement rate (i.e., repls/ref)
il1.wb_rate                  0.0000 # writeback rate (i.e., wrbks/ref)
il1.inv_rate                 0.0000 # invalidation rate (i.e., invs/ref)
dl1.accesses               42125719 # total number of accesses
dl1.hits                   42125647 # total number of hits
dl1.misses                       72 # total number of misses
dl1.replacements                  0 # total number of replacements
dl1.writebacks                    0 # total number of writebacks
dl1.invalidations                 0 # total number of invalidations
dl1.miss_rate                0.0000 # miss rate (i.e., misses/ref)
dl1.repl_rate                0.0000 # replacement rate (i.e., repls/ref)
dl1.wb_rate                  0.0000 # writeback rate (i.e., wrbks/ref)
dl1.inv_rate                 0.0000 # invalidation rate (i.e., invs/ref)
dl2.accesses                    159 # total number of accesses
dl2.hits                          0 # total number of hits
dl2.misses                      159 # total number of misses
dl2.replacements                  0 # total number of replacements
dl2.writebacks                    0 # total number of writebacks
dl2.invalidations                 0 # total number of invalidations
dl2.miss_rate                1.0000 # miss rate (i.e., misses/ref)
dl2.repl_rate                0.0000 # replacement rate (i.e., repls/ref)
dl2.wb_rate                  0.0000 # writeback rate (i.e., wrbks/ref)
dl2.inv_rate                 0.0000 # invalidation rate (i.e., invs/ref)
itlb.accesses             219420899 # total number of accesses
itlb.hits                 219420891 # total number of hits
itlb.misses                       8 # total number of misses
itlb.replacements                 0 # total number of replacements
itlb.writebacks                   0 # total number of writebacks
itlb.invalidations                0 # total number of invalidations
itlb.miss_rate               0.0000 # miss rate (i.e., misses/ref)
itlb.repl_rate               0.0000 # replacement rate (i.e., repls/ref)
itlb.wb_rate                 0.0000 # writeback rate (i.e., wrbks/ref)
itlb.inv_rate                0.0000 # invalidation rate (i.e., invs/ref)
dtlb.accesses              46911464 # total number of accesses
dtlb.hits                  46911443 # total number of hits
dtlb.misses                      21 # total number of misses
dtlb.replacements                 0 # total number of replacements
dtlb.writebacks                   0 # total number of writebacks
dtlb.invalidations                0 # total number of invalidations
dtlb.miss_rate               0.0000 # miss rate (i.e., misses/ref)
dtlb.repl_rate               0.0000 # replacement rate (i.e., repls/ref)
dtlb.wb_rate                 0.0000 # writeback rate (i.e., wrbks/ref)
dtlb.inv_rate                0.0000 # invalidation rate (i.e., invs/ref)
rename_power           91497898.7877 # total power usage of rename unit
bpred_power            70725604.1229 # total power usage of bpred unit
window_power           1897998617.2046 # total power usage of instruction window
lsq_power              263719456.0517 # total power usage of load/store queue
regfile_power          624188092.8561 # total power usage of arch. regfile
icache_power           75300220.9633 # total power usage of icache
dcache_power           319752148.9837 # total power usage of dcache
dcache2_power          77046063.0017 # total power usage of dcache2
alu_power              824898628.1048 # total power usage of alu
falu_power             709188866.4230 # total power usage of falu
resultbus_power        1382669580.9889 # total power usage of resultbus
clock_power            1589980020.9061 # total power usage of clock
avg_rename_power             3.6850 # avg power usage of rename unit
avg_bpred_power              2.8484 # avg power usage of bpred unit
avg_window_power            76.4406 # avg power usage of instruction window
avg_lsq_power               10.6211 # avg power usage of lsq
avg_regfile_power           25.1387 # avg power usage of arch. regfile
avg_icache_power             3.0327 # avg power usage of icache
avg_dcache_power            12.8778 # avg power usage of dcache
avg_dcache2_power            3.1030 # avg power usage of dcache2
avg_alu_power               33.2222 # avg power usage of alu
avg_falu_power              28.5621 # avg power usage of falu
avg_resultbus_power         55.6861 # avg power usage of resultbus
avg_clock_power             64.0353 # avg power usage of clock
fetch_stage_power      146025825.0862 # total power usage of fetch stage
dispatch_stage_power   91497898.7877 # total power usage of dispatch stage
issue_stage_power      4766084494.3354 # total power usage of issue stage
avg_fetch_power              5.8811 # average power of fetch unit per cycle
avg_dispatch_power           3.6850 # average power of dispatch unit per cycle
avg_issue_power            191.9507 # average power of issue unit per cycle
total_power            7217776331.9715 # total power per cycle
avg_total_power_cycle      290.6909 # average total power per cycle
avg_total_power_cycle_nofp_nod2     259.0259 # average total power per cycle
avg_total_power_insn        72.1778 # average total power per insn
avg_total_power_insn_nofp_nod2      64.3154 # average total power per insn
rename_power_cc1       78128894.8645 # total power usage of rename unit_cc1
bpred_power_cc1              0.0000 # total power usage of bpred unit_cc1
window_power_cc1       1708515139.6891 # total power usage of instruction window_cc1
lsq_power_cc1          151698917.5842 # total power usage of lsq_cc1
regfile_power_cc1      461146024.3765 # total power usage of arch. regfile_cc1
icache_power_cc1       64298003.3680 # total power usage of icache_cc1
dcache_power_cc1       246520346.4071 # total power usage of dcache_cc1
dcache2_power_cc1          477.8584 # total power usage of dcache2_cc1
alu_power_cc1          136324005.1531 # total power usage of alu_cc1
resultbus_power_cc1    1295715170.8201 # total power usage of resultbus_cc1
clock_power_cc1        1182750321.0004 # total power usage of clock_cc1
avg_rename_power_cc1         3.1466 # avg power usage of rename unit_cc1
avg_bpred_power_cc1          0.0000 # avg power usage of bpred unit_cc1
avg_window_power_cc1        68.8093 # avg power usage of instruction window_cc1
avg_lsq_power_cc1            6.1096 # avg power usage of lsq_cc1
avg_regfile_power_cc1       18.5723 # avg power usage of arch. regfile_cc1
avg_icache_power_cc1         2.5896 # avg power usage of icache_cc1
avg_dcache_power_cc1         9.9284 # avg power usage of dcache_cc1
avg_dcache2_power_cc1        0.0000 # avg power usage of dcache2_cc1
avg_alu_power_cc1            5.4904 # avg power usage of alu_cc1
avg_resultbus_power_cc1      52.1840 # avg power usage of resultbus_cc1
avg_clock_power_cc1         47.6344 # avg power usage of clock_cc1
fetch_stage_power_cc1  64298003.3680 # total power usage of fetch stage_cc1
dispatch_stage_power_cc1 78128894.8645 # total power usage of dispatch stage_cc1
issue_stage_power_cc1  3538774057.5120 # total power usage of issue stage_cc1
avg_fetch_power_cc1          2.5896 # average power of fetch unit per cycle_cc1
avg_dispatch_power_cc1       3.1466 # average power of dispatch unit per cycle_cc1
avg_issue_power_cc1        142.5217 # average power of issue unit per cycle_cc1
total_power_cycle_cc1  5325097301.1214 # total power per cycle_cc1
avg_total_power_cycle_cc1     214.4646 # average total power per cycle_cc1
avg_total_power_insn_cc1      53.2510 # average total power per insn_cc1
rename_power_cc2       23031342.0739 # total power usage of rename unit_cc2
bpred_power_cc2              0.0000 # total power usage of bpred unit_cc2
window_power_cc2       692673522.1183 # total power usage of instruction window_cc2
lsq_power_cc2          69387784.3969 # total power usage of lsq_cc2
regfile_power_cc2      42388620.6328 # total power usage of arch. regfile_cc2
icache_power_cc2       64298003.3680 # total power usage of icache_cc2
dcache_power_cc2       135621605.1068 # total power usage of dcache_cc2
dcache2_power_cc2          123.3433 # total power usage of dcache2_cc2
alu_power_cc2          118243156.8875 # total power usage of alu_cc2
resultbus_power_cc2    397643007.2719 # total power usage of resultbus_cc2
clock_power_cc2        440606625.7452 # total power usage of clock_cc2
avg_rename_power_cc2         0.9276 # avg power usage of rename unit_cc2
avg_bpred_power_cc2          0.0000 # avg power usage of bpred unit_cc2
avg_window_power_cc2        27.8969 # avg power usage of instruction window_cc2
avg_lsq_power_cc2            2.7945 # avg power usage of instruction lsq_cc2
avg_regfile_power_cc2        1.7072 # avg power usage of arch. regfile_cc2
avg_icache_power_cc2         2.5896 # avg power usage of icache_cc2
avg_dcache_power_cc2         5.4621 # avg power usage of dcache_cc2
avg_dcache2_power_cc2        0.0000 # avg power usage of dcache2_cc2
avg_alu_power_cc2            4.7622 # avg power usage of alu_cc2
avg_resultbus_power_cc2      16.0148 # avg power usage of resultbus_cc2
avg_clock_power_cc2         17.7451 # avg power usage of clock_cc2
fetch_stage_power_cc2  64298003.3680 # total power usage of fetch stage_cc2
dispatch_stage_power_cc2 23031342.0739 # total power usage of dispatch stage_cc2
issue_stage_power_cc2  1413569199.1247 # total power usage of issue stage_cc2
avg_fetch_power_cc2          2.5896 # average power of fetch unit per cycle_cc2
avg_dispatch_power_cc2       0.9276 # average power of dispatch unit per cycle_cc2
avg_issue_power_cc2         56.9305 # average power of issue unit per cycle_cc2
total_power_cycle_cc2  1983893790.9446 # total power per cycle_cc2
avg_total_power_cycle_cc2      79.8999 # average total power per cycle_cc2
avg_total_power_insn_cc2      19.8389 # average total power per insn_cc2
rename_power_cc3       24368242.4638 # total power usage of rename unit_cc3
bpred_power_cc3        7072560.4075 # total power usage of bpred unit_cc3
window_power_cc3       692751057.4997 # total power usage of instruction window_cc3
lsq_power_cc3          79733250.2166 # total power usage of lsq_cc3
regfile_power_cc3      54025867.5119 # total power usage of arch. regfile_cc3
icache_power_cc3       65398225.1319 # total power usage of icache_cc3
dcache_power_cc3       143589746.6188 # total power usage of dcache_cc3
dcache2_power_cc3      7704681.8628 # total power usage of dcache2_cc3
alu_power_cc3          187100619.0802 # total power usage of alu_cc3
resultbus_power_cc3    397700347.2066 # total power usage of resultbus_cc3
clock_power_cc3        472082352.0892 # total power usage of clock_cc3
avg_rename_power_cc3         0.9814 # avg power usage of rename unit_cc3
avg_bpred_power_cc3          0.2848 # avg power usage of bpred unit_cc3
avg_window_power_cc3        27.9001 # avg power usage of instruction window_cc3
avg_lsq_power_cc3            3.2112 # avg power usage of instruction lsq_cc3
avg_regfile_power_cc3        2.1759 # avg power usage of arch. regfile_cc3
avg_icache_power_cc3         2.6339 # avg power usage of icache_cc3
avg_dcache_power_cc3         5.7830 # avg power usage of dcache_cc3
avg_dcache2_power_cc3        0.3103 # avg power usage of dcache2_cc3
avg_alu_power_cc3            7.5353 # avg power usage of alu_cc3
avg_resultbus_power_cc3      16.0171 # avg power usage of resultbus_cc3
avg_clock_power_cc3         19.0128 # avg power usage of clock_cc3
fetch_stage_power_cc3  72470785.5394 # total power usage of fetch stage_cc3
dispatch_stage_power_cc3 24368242.4638 # total power usage of dispatch stage_cc3
issue_stage_power_cc3  1508579702.4847 # total power usage of issue stage_cc3
avg_fetch_power_cc3          2.9187 # average power of fetch unit per cycle_cc3
avg_dispatch_power_cc3       0.9814 # average power of dispatch unit per cycle_cc3
avg_issue_power_cc3         60.7570 # average power of issue unit per cycle_cc3
total_power_cycle_cc3  2131526950.0890 # total power per cycle_cc3
avg_total_power_cycle_cc3      85.8458 # average total power per cycle_cc3
avg_total_power_insn_cc3      21.3153 # average total power per insn_cc3
total_rename_access       100000008 # total number accesses of rename unit
total_bpred_access                0 # total number accesses of bpred unit
total_window_access       359710972 # total number accesses of instruction window
total_lsq_access           51697209 # total number accesses of load/store queue
total_regfile_access       88370088 # total number accesses of arch. regfile
total_icache_access       219420899 # total number accesses of icache
total_dcache_access        42125719 # total number accesses of dcache
total_dcache2_access            159 # total number accesses of dcache2
total_alu_access           99999904 # total number accesses of alu
total_resultbus_access    121869653 # total number accesses of resultbus
avg_rename_access            4.0274 # avg number accesses of rename unit
avg_bpred_access             0.0000 # avg number accesses of bpred unit
avg_window_access           14.4871 # avg number accesses of instruction window
avg_lsq_access               2.0821 # avg number accesses of lsq
avg_regfile_access           3.5590 # avg number accesses of arch. regfile
avg_icache_access            8.8370 # avg number accesses of icache
avg_dcache_access            1.6966 # avg number accesses of dcache
avg_dcache2_access           0.0000 # avg number accesses of dcache2
avg_alu_access               4.0274 # avg number accesses of alu
avg_resultbus_access         4.9082 # avg number accesses of resultbus
max_rename_access                16 # max number accesses of rename unit
max_bpred_access                  0 # max number accesses of bpred unit
max_window_access                34 # max number accesses of instruction window
max_lsq_access                    9 # max number accesses of load/store queue
max_regfile_access               25 # max number accesses of arch. regfile
max_icache_access                16 # max number accesses of icache
max_dcache_access                 7 # max number accesses of dcache
max_dcache2_access                2 # max number accesses of dcache2
max_alu_access                    5 # max number accesses of alu
max_resultbus_access              9 # max number accesses of resultbus
max_cycle_power_cc1        254.0141 # maximum cycle power usage of cc1
max_cycle_power_cc2        117.7170 # maximum cycle power usage of cc2
max_cycle_power_cc3        122.1092 # maximum cycle power usage of cc3
sim_invalid_addrs                 0 # total non-speculative bogus addresses seen (debug var)
ld_text_base           0x0120000000 # program text (code) segment base
ld_text_size                 876544 # program text (code) size in bytes
ld_data_base           0x0140000000 # program initialized data segment base
ld_data_size                 131616 # program init'ed `.data' and uninit'ed `.bss' size in bytes
ld_stack_base          0x011ff9b000 # program stack segment base (highest address in stack)
ld_stack_size                 16384 # program initial stack size
ld_prog_entry          0x012004d4ec # program entry point (initial PC)
ld_environ_base        0x011ff96b60 # program environment base address address
ld_target_big_endian              0 # target executable endian-ness, non-zero if big endian
mem.page_count                  186 # total number of pages allocated
mem.page_mem                  1488k # total size of memory pages allocated
mem.ptab_misses                 210 # total first level page table misses
mem.ptab_accesses        1121800038 # total page table accesses
mem.ptab_miss_rate           0.0000 # first level page table miss rate

