sim-outorder: SimpleScalar/Alpha Tool Set version 3.0 of August, 2003.
Copyright (c) 1994-2003 by Todd M. Austin, Ph.D. and SimpleScalar, LLC.
All Rights Reserved. This version of SimpleScalar is licensed for academic
non-commercial use.  No portion of this work may be used by any commercial
entity, or for any commercial purpose, without the prior written permission
of SimpleScalar, LLC (info@simplescalar.com).


Processor Parameters:
Issue Width: 16
Window Size: 128
Number of Virtual Registers: 32
Number of Physical Registers: 128
Datapath Width: 64
Total Power Consumption: 292.691
Branch Predictor Power Consumption: 2.84842  (0.98%)
 branch target buffer power (W): 2.49493
 local predict power (W): 0.0867068
 global predict power (W): 0.0996078
 chooser power (W): 0.0702439
 RAS power (W): 0.0969383
Rename Logic Power Consumption: 3.68501  (1.27%)
 Instruction Decode Power (W): 0.0639661
 RAT decode_power (W): 0.454058
 RAT wordline_power (W): 0.257408
 RAT bitline_power (W): 2.69143
 DCL Comparators (W): 0.218151
Instruction Window Power Consumption: 76.4406  (26.3%)
 tagdrive (W): 6.64903
 tagmatch (W): 2.27024
 Selection Logic (W): 0.461706
 decode_power (W): 2.17466
 wordline_power (W): 1.0557
 bitline_power (W): 63.8292
Load/Store Queue Power Consumption: 10.6211  (3.65%)
 tagdrive (W): 4.52311
 tagmatch (W): 1.71883
 decode_power (W): 0.162764
 wordline_power (W): 0.0433172
 bitline_power (W): 4.1731
Arch. Register File Power Consumption: 25.1387  (8.65%)
 decode_power (W): 0.454058
 wordline_power (W): 1.0557
 bitline_power (W): 23.629
Result Bus Power Consumption: 55.6861  (19.2%)
Total Clock Power: 64.0353  (22%)
Int ALU Power: 4.66013  (1.6%)
FP ALU Power: 28.5621  (9.83%)
Instruction Cache Power Consumption: 2.76773  (0.952%)
 decode_power (W): 0.151353
 wordline_power (W): 0.180479
 bitline_power (W): 1.42251
 senseamp_power (W): 0.768
 tagarray_power (W): 0.245382
Itlb_power (W): 0.264936 (0.0911%)
Data Cache Power Consumption: 11.0709  (3.81%)
 decode_power (W): 0.60541
 wordline_power (W): 0.721917
 bitline_power (W): 5.69006
 senseamp_power (W): 3.072
 tagarray_power (W): 0.981529
Dtlb_power (W): 1.80688 (0.622%)
Level 2 Cache Power Consumption: 3.10298 (1.07%)
 decode_power (W): 0.19487
 wordline_power (W): 0.0430878
 bitline_power (W): 1.77274
 senseamp_power (W): 0.192
 tagarray_power (W): 0.900275
sim: loading EIO file: ../benchmarks/256.bzip2.graphic-ref.eio.gz
sim: command line: ./sim-outorder -config ../configs/current.config ../benchmarks/256.bzip2.graphic-ref.eio.gz 

sim: simulation started @ Tue Nov 24 12:27:11 2015, options follow:

sim-outorder: This simulator implements a very detailed out-of-order issue
superscalar processor with a two-level memory system and speculative
execution support.  This simulator is a performance simulator, tracking the
latency of all pipeline operations.

# -config                     # load configuration from a file
# -dumpconfig                 # dump configuration to a file
# -h                    false # print help message    
# -v                    false # verbose operation     
# -d                    false # enable debug message  
# -i                    false # start in Dlite debugger
-seed                       1 # random number generator seed (0 for timer seed)
# -q                    false # initialize and terminate immediately
# -chkpt               <null> # restore EIO trace execution from <fname>
# -redir:sim     ../results/26_23_ruu/256.bzip2.graphic-ref.eio.gz.out # redirect simulator output to file (non-interactive only)
# -redir:prog       /dev/null # redirect simulated program output to file
-nice                       0 # simulator scheduling priority
-freq            600000000.0000 # frequency             
-max:inst           100000000 # maximum number of inst's to execute
-fastfwd                    0 # number of insts skipped before timing starts
# -ptrace              <null> # generate pipetrace, i.e., <fname|stdout|stderr> <range>
-fetch:ifqsize             16 # instruction fetch queue size (in insts)
-fetch:mplat               15 # extra branch mis-prediction latency
-fetch:speed                1 # speed of front-end of machine relative to execution core
-bpred                perfect # branch predictor type {nottaken|taken|perfect|bimod|2lev|comb}
-bpred:bimod     2048 # bimodal predictor config (<table size>)
-bpred:2lev      1 1024 4 0 # 2-level predictor config (<l1size> <l2size> <hist_size> <xor>)
-bpred:comb      1024 # combining predictor config (<meta_table_size>)
-bpred:ras                  8 # return address stack size (0 for no return stack)
-bpred:btb       512 4 # BTB config (<num_sets> <associativity>)
# -bpred:spec_update       <null> # speculative predictors update in {ID|WB} (default non-spec)
-decode:width              16 # instruction decode B/W (insts/cycle)
-issue:width               16 # instruction issue B/W (insts/cycle)
-issue:inorder          false # run pipeline with in-order issue
-issue:wrongpath         true # issue instructions down wrong execution paths
-commit:width              16 # instruction commit B/W (insts/cycle)
-ruu:size                 128 # register update unit (RUU) size
-lsq:size                  64 # load/store queue (LSQ) size
-cache:dl1       dl1:32:64:8:f # l1 data cache config, i.e., {<config>|none}
-cache:dl1lat               1 # l1 data cache hit latency (in cycles)
-cache:dl2       dl2:256:64:8:f # l2 data cache config, i.e., {<config>|none}
-cache:dl2lat               2 # l2 data cache hit latency (in cycles)
-cache:il1       il1:32:64:8:f # l1 inst cache config, i.e., {<config>|dl1|dl2|none}
-cache:il1lat               1 # l1 instruction cache hit latency (in cycles)
-cache:il2                dl2 # l2 instruction cache config, i.e., {<config>|dl2|none}
-cache:il2lat               2 # l2 instruction cache hit latency (in cycles)
-cache:flush            false # flush caches on system calls
-cache:icompress        false # convert 64-bit inst addresses to 32-bit inst equivalents
-mem:lat         103 1 # memory access latency (<first_chunk> <inter_chunk>)
-mem:width                  8 # memory access bus width (in bytes)
-tlb:itlb        itlb:16:4096:4:l # instruction TLB config, i.e., {<config>|none}
-tlb:dtlb        dtlb:32:4096:4:l # data TLB config, i.e., {<config>|none}
-tlb:lat                   30 # inst/data TLB miss latency (in cycles)
-res:ialu                   4 # total number of integer ALU's available
-res:imult                  2 # total number of integer multiplier/dividers available
-res:memport                4 # total number of memory system ports available (to CPU)
-res:fpalu                  8 # total number of floating point ALU's available
-res:fpmult                 2 # total number of floating point multiplier/dividers available
# -pcstat              <null> # profile stat(s) against text addr's (mult uses ok)
-bugcompat              false # operate in backward-compatible bugs mode (for testing only)

  Pipetrace range arguments are formatted as follows:

    {{@|#}<start>}:{{@|#|+}<end>}

  Both ends of the range are optional, if neither are specified, the entire
  execution is traced.  Ranges that start with a `@' designate an address
  range to be traced, those that start with an `#' designate a cycle count
  range.  All other range values represent an instruction count range.  The
  second argument, if specified with a `+', indicates a value relative
  to the first argument, e.g., 1000:+100 == 1000:1100.  Program symbols may
  be used in all contexts.

    Examples:   -ptrace FOO.trc #0:#1000
                -ptrace BAR.trc @2000:
                -ptrace BLAH.trc :1500
                -ptrace UXXE.trc :
                -ptrace FOOBAR.trc @main:+278

  Branch predictor configuration examples for 2-level predictor:
    Configurations:   N, M, W, X
      N   # entries in first level (# of shift register(s))
      W   width of shift register(s)
      M   # entries in 2nd level (# of counters, or other FSM)
      X   (yes-1/no-0) xor history and address for 2nd level index
    Sample predictors:
      GAg     : 1, W, 2^W, 0
      GAp     : 1, W, M (M > 2^W), 0
      PAg     : N, W, 2^W, 0
      PAp     : N, W, M (M == 2^(N+W)), 0
      gshare  : 1, W, 2^W, 1
  Predictor `comb' combines a bimodal and a 2-level predictor.

  The cache config parameter <config> has the following format:

    <name>:<nsets>:<bsize>:<assoc>:<repl>

    <name>   - name of the cache being defined
    <nsets>  - number of sets in the cache
    <bsize>  - block size of the cache
    <assoc>  - associativity of the cache
    <repl>   - block replacement strategy, 'l'-LRU, 'f'-FIFO, 'r'-random

    Examples:   -cache:dl1 dl1:4096:32:1:l
                -dtlb dtlb:128:4096:32:r

  Cache levels can be unified by pointing a level of the instruction cache
  hierarchy at the data cache hiearchy using the "dl1" and "dl2" cache
  configuration arguments.  Most sensible combinations are supported, e.g.,

    A unified l2 cache (il2 is pointed at dl2):
      -cache:il1 il1:128:64:1:l -cache:il2 dl2
      -cache:dl1 dl1:256:32:1:l -cache:dl2 ul2:1024:64:2:l

    Or, a fully unified cache hierarchy (il1 pointed at dl1):
      -cache:il1 dl1
      -cache:dl1 ul1:256:32:1:l -cache:dl2 ul2:1024:64:2:l



sim: ** starting performance simulation **

sim: ** simulation statistics **
sim_num_insn              100000000 # total number of instructions committed
sim_num_refs               33572802 # total number of loads and stores committed
sim_num_loads              25578542 # total number of loads committed
sim_num_stores         7994260.0000 # total number of stores committed
sim_num_branches           12399644 # total number of branches committed
sim_elapsed_time                182 # total simulation time in seconds
sim_inst_rate           549450.5495 # simulation speed (in insts/sec)
sim_total_insn            100000000 # total number of instructions executed
sim_total_refs             33572802 # total number of loads and stores executed
sim_total_loads            25578542 # total number of loads executed
sim_total_stores       7994260.0000 # total number of stores executed
sim_total_branches         12399644 # total number of branches executed
sim_cycle                  25541590 # total simulation time in cycles
sim_IPC                      3.9152 # instructions per cycle
sim_CPI                      0.2554 # cycles per instruction
sim_exec_BW                  3.9152 # total instructions (mis-spec + committed) per cycle
sim_IPB                      8.0647 # instruction per branch
IFQ_count                 408607554 # cumulative IFQ occupancy
IFQ_fcount                 25537960 # cumulative IFQ full count
ifq_occupancy               15.9977 # avg IFQ occupancy (insn's)
ifq_rate                     3.9152 # avg IFQ dispatch rate (insn/cycle)
ifq_latency                  4.0861 # avg IFQ occupant latency (cycle's)
ifq_full                     0.9999 # fraction of time (cycle's) IFQ was full
RUU_count                3218463010 # cumulative RUU occupancy
RUU_fcount                 17882473 # cumulative RUU full count
ruu_occupancy              126.0087 # avg RUU occupancy (insn's)
ruu_rate                     3.9152 # avg RUU dispatch rate (insn/cycle)
ruu_latency                 32.1846 # avg RUU occupant latency (cycle's)
ruu_full                     0.7001 # fraction of time (cycle's) RUU was full
LSQ_count                1092869178 # cumulative LSQ occupancy
LSQ_fcount                        0 # cumulative LSQ full count
lsq_occupancy               42.7878 # avg LSQ occupancy (insn's)
lsq_rate                     3.9152 # avg LSQ dispatch rate (insn/cycle)
lsq_latency                 10.9287 # avg LSQ occupant latency (cycle's)
lsq_full                     0.0000 # fraction of time (cycle's) LSQ was full
sim_slip                 4444902131 # total number of slip cycles
avg_sim_slip                44.4490 # the average slip between issue and retirement
il1.accesses              216544976 # total number of accesses
il1.hits                  216544943 # total number of hits
il1.misses                       33 # total number of misses
il1.replacements                  0 # total number of replacements
il1.writebacks                    0 # total number of writebacks
il1.invalidations                 0 # total number of invalidations
il1.miss_rate                0.0000 # miss rate (i.e., misses/ref)
il1.repl_rate                0.0000 # replacement rate (i.e., repls/ref)
il1.wb_rate                  0.0000 # writeback rate (i.e., wrbks/ref)
il1.inv_rate                 0.0000 # invalidation rate (i.e., invs/ref)
dl1.accesses               33517000 # total number of accesses
dl1.hits                   33502488 # total number of hits
dl1.misses                    14512 # total number of misses
dl1.replacements              14256 # total number of replacements
dl1.writebacks                 6790 # total number of writebacks
dl1.invalidations                 0 # total number of invalidations
dl1.miss_rate                0.0004 # miss rate (i.e., misses/ref)
dl1.repl_rate                0.0004 # replacement rate (i.e., repls/ref)
dl1.wb_rate                  0.0002 # writeback rate (i.e., wrbks/ref)
dl1.inv_rate                 0.0000 # invalidation rate (i.e., invs/ref)
dl2.accesses                  21335 # total number of accesses
dl2.hits                       8402 # total number of hits
dl2.misses                    12933 # total number of misses
dl2.replacements              10885 # total number of replacements
dl2.writebacks                 5382 # total number of writebacks
dl2.invalidations                 0 # total number of invalidations
dl2.miss_rate                0.6062 # miss rate (i.e., misses/ref)
dl2.repl_rate                0.5102 # replacement rate (i.e., repls/ref)
dl2.wb_rate                  0.2523 # writeback rate (i.e., wrbks/ref)
dl2.inv_rate                 0.0000 # invalidation rate (i.e., invs/ref)
itlb.accesses             216544976 # total number of accesses
itlb.hits                 216544974 # total number of hits
itlb.misses                       2 # total number of misses
itlb.replacements                 0 # total number of replacements
itlb.writebacks                   0 # total number of writebacks
itlb.invalidations                0 # total number of invalidations
itlb.miss_rate               0.0000 # miss rate (i.e., misses/ref)
itlb.repl_rate               0.0000 # replacement rate (i.e., repls/ref)
itlb.wb_rate                 0.0000 # writeback rate (i.e., wrbks/ref)
itlb.inv_rate                0.0000 # invalidation rate (i.e., invs/ref)
dtlb.accesses              33572766 # total number of accesses
dtlb.hits                  33572560 # total number of hits
dtlb.misses                     206 # total number of misses
dtlb.replacements                78 # total number of replacements
dtlb.writebacks                   0 # total number of writebacks
dtlb.invalidations                0 # total number of invalidations
dtlb.miss_rate               0.0000 # miss rate (i.e., misses/ref)
dtlb.repl_rate               0.0000 # replacement rate (i.e., repls/ref)
dtlb.wb_rate                 0.0000 # writeback rate (i.e., wrbks/ref)
dtlb.inv_rate                0.0000 # invalidation rate (i.e., invs/ref)
rename_power           94121127.9082 # total power usage of rename unit
bpred_power            72753295.1044 # total power usage of bpred unit
window_power           1952413913.1500 # total power usage of instruction window
lsq_power              271280247.7718 # total power usage of load/store queue
regfile_power          642083458.7790 # total power usage of arch. regfile
icache_power           77459065.4276 # total power usage of icache
dcache_power           328919388.4362 # total power usage of dcache
dcache2_power          79254960.4565 # total power usage of dcache2
alu_power              848548330.7376 # total power usage of alu
falu_power             729521190.0018 # total power usage of falu
resultbus_power        1422310481.5218 # total power usage of resultbus
clock_power            1635564476.2669 # total power usage of clock
avg_rename_power             3.6850 # avg power usage of rename unit
avg_bpred_power              2.8484 # avg power usage of bpred unit
avg_window_power            76.4406 # avg power usage of instruction window
avg_lsq_power               10.6211 # avg power usage of lsq
avg_regfile_power           25.1387 # avg power usage of arch. regfile
avg_icache_power             3.0327 # avg power usage of icache
avg_dcache_power            12.8778 # avg power usage of dcache
avg_dcache2_power            3.1030 # avg power usage of dcache2
avg_alu_power               33.2222 # avg power usage of alu
avg_falu_power              28.5621 # avg power usage of falu
avg_resultbus_power         55.6861 # avg power usage of resultbus
avg_clock_power             64.0353 # avg power usage of clock
fetch_stage_power      150212360.5320 # total power usage of fetch stage
dispatch_stage_power   94121127.9082 # total power usage of dispatch stage
issue_stage_power      4902727322.0739 # total power usage of issue stage
avg_fetch_power              5.8811 # average power of fetch unit per cycle
avg_dispatch_power           3.6850 # average power of dispatch unit per cycle
avg_issue_power            191.9507 # average power of issue unit per cycle
total_power            7424708745.5600 # total power per cycle
avg_total_power_cycle      290.6909 # average total power per cycle
avg_total_power_cycle_nofp_nod2     259.0259 # average total power per cycle
avg_total_power_insn        74.2471 # average total power per insn
avg_total_power_insn_nofp_nod2      66.1593 # average total power per insn
rename_power_cc1       85903287.7524 # total power usage of rename unit_cc1
bpred_power_cc1              0.0000 # total power usage of bpred unit_cc1
window_power_cc1       1751013341.9824 # total power usage of instruction window_cc1
lsq_power_cc1          116257454.2126 # total power usage of lsq_cc1
regfile_power_cc1      526453356.7769 # total power usage of arch. regfile_cc1
icache_power_cc1       70696048.3789 # total power usage of icache_cc1
dcache_power_cc1       236935354.4644 # total power usage of dcache_cc1
dcache2_power_cc1        44977.6483 # total power usage of dcache2_cc1
alu_power_cc1          116618655.5526 # total power usage of alu_cc1
resultbus_power_cc1    1306851686.5058 # total power usage of resultbus_cc1
clock_power_cc1        1204565754.4166 # total power usage of clock_cc1
avg_rename_power_cc1         3.3633 # avg power usage of rename unit_cc1
avg_bpred_power_cc1          0.0000 # avg power usage of bpred unit_cc1
avg_window_power_cc1        68.5554 # avg power usage of instruction window_cc1
avg_lsq_power_cc1            4.5517 # avg power usage of lsq_cc1
avg_regfile_power_cc1       20.6116 # avg power usage of arch. regfile_cc1
avg_icache_power_cc1         2.7679 # avg power usage of icache_cc1
avg_dcache_power_cc1         9.2765 # avg power usage of dcache_cc1
avg_dcache2_power_cc1        0.0018 # avg power usage of dcache2_cc1
avg_alu_power_cc1            4.5658 # avg power usage of alu_cc1
avg_resultbus_power_cc1      51.1656 # avg power usage of resultbus_cc1
avg_clock_power_cc1         47.1610 # avg power usage of clock_cc1
fetch_stage_power_cc1  70696048.3789 # total power usage of fetch stage_cc1
dispatch_stage_power_cc1 85903287.7524 # total power usage of dispatch stage_cc1
issue_stage_power_cc1  3527721470.3662 # total power usage of issue stage_cc1
avg_fetch_power_cc1          2.7679 # average power of fetch unit per cycle_cc1
avg_dispatch_power_cc1       3.3633 # average power of dispatch unit per cycle_cc1
avg_issue_power_cc1        138.1168 # average power of issue unit per cycle_cc1
total_power_cycle_cc1  5415339917.6910 # total power per cycle_cc1
avg_total_power_cycle_cc1     212.0205 # average total power per cycle_cc1
avg_total_power_insn_cc1      54.1534 # average total power per insn_cc1
rename_power_cc2       23031340.2308 # total power usage of rename unit_cc2
bpred_power_cc2              0.0000 # total power usage of bpred unit_cc2
window_power_cc2       692906146.0894 # total power usage of instruction window_cc2
lsq_power_cc2          47679028.1030 # total power usage of lsq_cc2
regfile_power_cc2      52031393.5764 # total power usage of arch. regfile_cc2
icache_power_cc2       70696048.3789 # total power usage of icache_cc2
dcache_power_cc2       107906273.0849 # total power usage of dcache_cc2
dcache2_power_cc2        16550.5024 # total power usage of dcache2_cc2
alu_power_cc2          116503132.0835 # total power usage of alu_cc2
resultbus_power_cc2    369285909.6885 # total power usage of resultbus_cc2
clock_power_cc2        423387169.9010 # total power usage of clock_cc2
avg_rename_power_cc2         0.9017 # avg power usage of rename unit_cc2
avg_bpred_power_cc2          0.0000 # avg power usage of bpred unit_cc2
avg_window_power_cc2        27.1285 # avg power usage of instruction window_cc2
avg_lsq_power_cc2            1.8667 # avg power usage of instruction lsq_cc2
avg_regfile_power_cc2        2.0371 # avg power usage of arch. regfile_cc2
avg_icache_power_cc2         2.7679 # avg power usage of icache_cc2
avg_dcache_power_cc2         4.2247 # avg power usage of dcache_cc2
avg_dcache2_power_cc2        0.0006 # avg power usage of dcache2_cc2
avg_alu_power_cc2            4.5613 # avg power usage of alu_cc2
avg_resultbus_power_cc2      14.4582 # avg power usage of resultbus_cc2
avg_clock_power_cc2         16.5764 # avg power usage of clock_cc2
fetch_stage_power_cc2  70696048.3789 # total power usage of fetch stage_cc2
dispatch_stage_power_cc2 23031340.2308 # total power usage of dispatch stage_cc2
issue_stage_power_cc2  1334297039.5516 # total power usage of issue stage_cc2
avg_fetch_power_cc2          2.7679 # average power of fetch unit per cycle_cc2
avg_dispatch_power_cc2       0.9017 # average power of dispatch unit per cycle_cc2
avg_issue_power_cc2         52.2402 # average power of issue unit per cycle_cc2
total_power_cycle_cc2  1903442991.6387 # total power per cycle_cc2
avg_total_power_cycle_cc2      74.5233 # average total power per cycle_cc2
avg_total_power_insn_cc2      19.0344 # average total power per insn_cc2
rename_power_cc3       23853124.2449 # total power usage of rename unit_cc3
bpred_power_cc3        7275329.5054 # total power usage of bpred unit_cc3
window_power_cc3       696794236.3176 # total power usage of instruction window_cc3
lsq_power_cc3          62916665.2482 # total power usage of lsq_cc3
regfile_power_cc3      58890268.2447 # total power usage of arch. regfile_cc3
icache_power_cc3       71372350.0865 # total power usage of icache_cc3
dcache_power_cc3       117104822.3371 # total power usage of dcache_cc3
dcache2_power_cc3      7937548.7886 # total power usage of dcache2_cc3
alu_power_cc3          189696099.4943 # total power usage of alu_cc3
resultbus_power_cc3    372119444.6732 # total power usage of resultbus_cc3
clock_power_cc3        457929154.5667 # total power usage of clock_cc3
avg_rename_power_cc3         0.9339 # avg power usage of rename unit_cc3
avg_bpred_power_cc3          0.2848 # avg power usage of bpred unit_cc3
avg_window_power_cc3        27.2808 # avg power usage of instruction window_cc3
avg_lsq_power_cc3            2.4633 # avg power usage of instruction lsq_cc3
avg_regfile_power_cc3        2.3057 # avg power usage of arch. regfile_cc3
avg_icache_power_cc3         2.7944 # avg power usage of icache_cc3
avg_dcache_power_cc3         4.5849 # avg power usage of dcache_cc3
avg_dcache2_power_cc3        0.3108 # avg power usage of dcache2_cc3
avg_alu_power_cc3            7.4269 # avg power usage of alu_cc3
avg_resultbus_power_cc3      14.5692 # avg power usage of resultbus_cc3
avg_clock_power_cc3         17.9288 # avg power usage of clock_cc3
fetch_stage_power_cc3  78647679.5919 # total power usage of fetch stage_cc3
dispatch_stage_power_cc3 23853124.2449 # total power usage of dispatch stage_cc3
issue_stage_power_cc3  1446568816.8591 # total power usage of issue stage_cc3
avg_fetch_power_cc3          3.0792 # average power of fetch unit per cycle_cc3
avg_dispatch_power_cc3       0.9339 # average power of dispatch unit per cycle_cc3
avg_issue_power_cc3         56.6358 # average power of issue unit per cycle_cc3
total_power_cycle_cc3  2065889043.5072 # total power per cycle_cc3
avg_total_power_cycle_cc3      80.8833 # average total power per cycle_cc3
avg_total_power_insn_cc3      20.6589 # average total power per insn_cc3
total_rename_access       100000000 # total number accesses of rename unit
total_bpred_access                0 # total number accesses of bpred unit
total_window_access       357999837 # total number accesses of instruction window
total_lsq_access           33628533 # total number accesses of load/store queue
total_regfile_access      108699253 # total number accesses of arch. regfile
total_icache_access       216544976 # total number accesses of icache
total_dcache_access        33517000 # total number accesses of dcache
total_dcache2_access          21335 # total number accesses of dcache2
total_alu_access           99999889 # total number accesses of alu
total_resultbus_access    113178768 # total number accesses of resultbus
avg_rename_access            3.9152 # avg number accesses of rename unit
avg_bpred_access             0.0000 # avg number accesses of bpred unit
avg_window_access           14.0163 # avg number accesses of instruction window
avg_lsq_access               1.3166 # avg number accesses of lsq
avg_regfile_access           4.2558 # avg number accesses of arch. regfile
avg_icache_access            8.4781 # avg number accesses of icache
avg_dcache_access            1.3123 # avg number accesses of dcache
avg_dcache2_access           0.0008 # avg number accesses of dcache2
avg_alu_access               3.9152 # avg number accesses of alu
avg_resultbus_access         4.4312 # avg number accesses of resultbus
max_rename_access                16 # max number accesses of rename unit
max_bpred_access                  0 # max number accesses of bpred unit
max_window_access                36 # max number accesses of instruction window
max_lsq_access                    8 # max number accesses of load/store queue
max_regfile_access               23 # max number accesses of arch. regfile
max_icache_access                16 # max number accesses of icache
max_dcache_access                 8 # max number accesses of dcache
max_dcache2_access                3 # max number accesses of dcache2
max_alu_access                    4 # max number accesses of alu
max_resultbus_access             12 # max number accesses of resultbus
max_cycle_power_cc1        235.7552 # maximum cycle power usage of cc1
max_cycle_power_cc2        134.3219 # maximum cycle power usage of cc2
max_cycle_power_cc3        138.8174 # maximum cycle power usage of cc3
sim_invalid_addrs                 0 # total non-speculative bogus addresses seen (debug var)
ld_text_base           0x0120000000 # program text (code) segment base
ld_text_size                 196608 # program text (code) size in bytes
ld_data_base           0x0140000000 # program initialized data segment base
ld_data_size                 146544 # program init'ed `.data' and uninit'ed `.bss' size in bytes
ld_stack_base          0x011ff9b000 # program stack segment base (highest address in stack)
ld_stack_size                 16384 # program initial stack size
ld_prog_entry          0x012000f684 # program entry point (initial PC)
ld_environ_base        0x011ff96ed0 # program environment base address address
ld_target_big_endian              0 # target executable endian-ness, non-zero if big endian
mem.page_count                23388 # total number of pages allocated
mem.page_mem                187104k # total size of memory pages allocated
mem.ptab_misses               23395 # total first level page table misses
mem.ptab_accesses        1242058330 # total page table accesses
mem.ptab_miss_rate           0.0000 # first level page table miss rate

