sim-outorder: SimpleScalar/Alpha Tool Set version 3.0 of August, 2003.
Copyright (c) 1994-2003 by Todd M. Austin, Ph.D. and SimpleScalar, LLC.
All Rights Reserved. This version of SimpleScalar is licensed for academic
non-commercial use.  No portion of this work may be used by any commercial
entity, or for any commercial purpose, without the prior written permission
of SimpleScalar, LLC (info@simplescalar.com).


Processor Parameters:
Issue Width: 4
Window Size: 32
Number of Virtual Registers: 32
Number of Physical Registers: 32
Datapath Width: 64
Total Power Consumption: 77.1436
Branch Predictor Power Consumption: 3.33649  (4.44%)
 branch target buffer power (W): 2.49493
 local predict power (W): 0.574771
 global predict power (W): 0.0996078
 chooser power (W): 0.0702439
 RAS power (W): 0.0969383
Rename Logic Power Consumption: 0.484305  (0.645%)
 Instruction Decode Power (W): 0.0159915
 RAT decode_power (W): 0.113514
 RAT wordline_power (W): 0.0354288
 RAT bitline_power (W): 0.308463
 DCL Comparators (W): 0.0109075
Instruction Window Power Consumption: 3.88117  (5.17%)
 tagdrive (W): 0.19858
 tagmatch (W): 0.0805895
 Selection Logic (W): 0.0295277
 decode_power (W): 0.113514
 wordline_power (W): 0.0844643
 bitline_power (W): 3.37449
Load/Store Queue Power Consumption: 1.18197  (1.57%)
 tagdrive (W): 0.457232
 tagmatch (W): 0.100774
 decode_power (W): 0.00799577
 wordline_power (W): 0.0150119
 bitline_power (W): 0.60096
Arch. Register File Power Consumption: 3.57247  (4.75%)
 decode_power (W): 0.113514
 wordline_power (W): 0.0844643
 bitline_power (W): 3.37449
Result Bus Power Consumption: 2.75173  (3.66%)
Total Clock Power: 28.42  (37.8%)
Int ALU Power: 4.66013  (6.2%)
FP ALU Power: 14.281  (19%)
Instruction Cache Power Consumption: 2.76773  (3.68%)
 decode_power (W): 0.151353
 wordline_power (W): 0.180479
 bitline_power (W): 1.42251
 senseamp_power (W): 0.768
 tagarray_power (W): 0.245382
Itlb_power (W): 0.264834 (0.352%)
Data Cache Power Consumption: 5.53546  (7.37%)
 decode_power (W): 0.302705
 wordline_power (W): 0.360958
 bitline_power (W): 2.84503
 senseamp_power (W): 1.536
 tagarray_power (W): 0.490764
Dtlb_power (W): 0.903238 (1.2%)
Level 2 Cache Power Consumption: 3.10298 (4.13%)
 decode_power (W): 0.19487
 wordline_power (W): 0.0430878
 bitline_power (W): 1.77274
 senseamp_power (W): 0.192
 tagarray_power (W): 0.900275
sim: loading EIO file: ../benchmarks/164.gzip.graphic-ref.eio.gz
sim: command line: ./sim-outorder -config ../configs/current.config ../benchmarks/164.gzip.graphic-ref.eio.gz 

sim: simulation started @ Mon Nov 23 21:20:48 2015, options follow:

sim-outorder: This simulator implements a very detailed out-of-order issue
superscalar processor with a two-level memory system and speculative
execution support.  This simulator is a performance simulator, tracking the
latency of all pipeline operations.

# -config                     # load configuration from a file
# -dumpconfig                 # dump configuration to a file
# -h                    false # print help message    
# -v                    false # verbose operation     
# -d                    false # enable debug message  
# -i                    false # start in Dlite debugger
-seed                       1 # random number generator seed (0 for timer seed)
# -q                    false # initialize and terminate immediately
# -chkpt               <null> # restore EIO trace execution from <fname>
# -redir:sim     ../results/15_01_ruu/164.gzip.graphic-ref.eio.gz.out # redirect simulator output to file (non-interactive only)
# -redir:prog       /dev/null # redirect simulated program output to file
-nice                       0 # simulator scheduling priority
-freq            600000000.0000 # frequency             
-max:inst           100000000 # maximum number of inst's to execute
-fastfwd                    0 # number of insts skipped before timing starts
# -ptrace              <null> # generate pipetrace, i.e., <fname|stdout|stderr> <range>
-fetch:ifqsize              4 # instruction fetch queue size (in insts)
-fetch:mplat               15 # extra branch mis-prediction latency
-fetch:speed                1 # speed of front-end of machine relative to execution core
-bpred                perfect # branch predictor type {nottaken|taken|perfect|bimod|2lev|comb}
-bpred:bimod     2048 # bimodal predictor config (<table size>)
-bpred:2lev      1 16384 4 0 # 2-level predictor config (<l1size> <l2size> <hist_size> <xor>)
-bpred:comb      1024 # combining predictor config (<meta_table_size>)
-bpred:ras                  8 # return address stack size (0 for no return stack)
-bpred:btb       512 4 # BTB config (<num_sets> <associativity>)
# -bpred:spec_update       <null> # speculative predictors update in {ID|WB} (default non-spec)
-decode:width               4 # instruction decode B/W (insts/cycle)
-issue:width                4 # instruction issue B/W (insts/cycle)
-issue:inorder          false # run pipeline with in-order issue
-issue:wrongpath         true # issue instructions down wrong execution paths
-commit:width               4 # instruction commit B/W (insts/cycle)
-ruu:size                  32 # register update unit (RUU) size
-lsq:size                   8 # load/store queue (LSQ) size
-cache:dl1       dl1:32:64:8:f # l1 data cache config, i.e., {<config>|none}
-cache:dl1lat               1 # l1 data cache hit latency (in cycles)
-cache:dl2       dl2:256:64:8:f # l2 data cache config, i.e., {<config>|none}
-cache:dl2lat               2 # l2 data cache hit latency (in cycles)
-cache:il1       il1:32:64:8:f # l1 inst cache config, i.e., {<config>|dl1|dl2|none}
-cache:il1lat               1 # l1 instruction cache hit latency (in cycles)
-cache:il2                dl2 # l2 instruction cache config, i.e., {<config>|dl2|none}
-cache:il2lat               2 # l2 instruction cache hit latency (in cycles)
-cache:flush            false # flush caches on system calls
-cache:icompress        false # convert 64-bit inst addresses to 32-bit inst equivalents
-mem:lat         103 1 # memory access latency (<first_chunk> <inter_chunk>)
-mem:width                  8 # memory access bus width (in bytes)
-tlb:itlb        itlb:16:4096:4:l # instruction TLB config, i.e., {<config>|none}
-tlb:dtlb        dtlb:32:4096:4:l # data TLB config, i.e., {<config>|none}
-tlb:lat                   30 # inst/data TLB miss latency (in cycles)
-res:ialu                   4 # total number of integer ALU's available
-res:imult                  1 # total number of integer multiplier/dividers available
-res:memport                2 # total number of memory system ports available (to CPU)
-res:fpalu                  4 # total number of floating point ALU's available
-res:fpmult                 1 # total number of floating point multiplier/dividers available
# -pcstat              <null> # profile stat(s) against text addr's (mult uses ok)
-bugcompat              false # operate in backward-compatible bugs mode (for testing only)

  Pipetrace range arguments are formatted as follows:

    {{@|#}<start>}:{{@|#|+}<end>}

  Both ends of the range are optional, if neither are specified, the entire
  execution is traced.  Ranges that start with a `@' designate an address
  range to be traced, those that start with an `#' designate a cycle count
  range.  All other range values represent an instruction count range.  The
  second argument, if specified with a `+', indicates a value relative
  to the first argument, e.g., 1000:+100 == 1000:1100.  Program symbols may
  be used in all contexts.

    Examples:   -ptrace FOO.trc #0:#1000
                -ptrace BAR.trc @2000:
                -ptrace BLAH.trc :1500
                -ptrace UXXE.trc :
                -ptrace FOOBAR.trc @main:+278

  Branch predictor configuration examples for 2-level predictor:
    Configurations:   N, M, W, X
      N   # entries in first level (# of shift register(s))
      W   width of shift register(s)
      M   # entries in 2nd level (# of counters, or other FSM)
      X   (yes-1/no-0) xor history and address for 2nd level index
    Sample predictors:
      GAg     : 1, W, 2^W, 0
      GAp     : 1, W, M (M > 2^W), 0
      PAg     : N, W, 2^W, 0
      PAp     : N, W, M (M == 2^(N+W)), 0
      gshare  : 1, W, 2^W, 1
  Predictor `comb' combines a bimodal and a 2-level predictor.

  The cache config parameter <config> has the following format:

    <name>:<nsets>:<bsize>:<assoc>:<repl>

    <name>   - name of the cache being defined
    <nsets>  - number of sets in the cache
    <bsize>  - block size of the cache
    <assoc>  - associativity of the cache
    <repl>   - block replacement strategy, 'l'-LRU, 'f'-FIFO, 'r'-random

    Examples:   -cache:dl1 dl1:4096:32:1:l
                -dtlb dtlb:128:4096:32:r

  Cache levels can be unified by pointing a level of the instruction cache
  hierarchy at the data cache hiearchy using the "dl1" and "dl2" cache
  configuration arguments.  Most sensible combinations are supported, e.g.,

    A unified l2 cache (il2 is pointed at dl2):
      -cache:il1 il1:128:64:1:l -cache:il2 dl2
      -cache:dl1 dl1:256:32:1:l -cache:dl2 ul2:1024:64:2:l

    Or, a fully unified cache hierarchy (il1 pointed at dl1):
      -cache:il1 dl1
      -cache:dl1 ul1:256:32:1:l -cache:dl2 ul2:1024:64:2:l



sim: ** starting performance simulation **

sim: ** simulation statistics **
sim_num_insn              100000000 # total number of instructions committed
sim_num_refs               32185222 # total number of loads and stores committed
sim_num_loads              24300619 # total number of loads committed
sim_num_stores         7884603.0000 # total number of stores committed
sim_num_branches           10034675 # total number of branches committed
sim_elapsed_time                108 # total simulation time in seconds
sim_inst_rate           925925.9259 # simulation speed (in insts/sec)
sim_total_insn            100000000 # total number of instructions executed
sim_total_refs             32185222 # total number of loads and stores executed
sim_total_loads            24300619 # total number of loads executed
sim_total_stores       7884603.0000 # total number of stores executed
sim_total_branches         10034675 # total number of branches executed
sim_cycle                  65891240 # total simulation time in cycles
sim_IPC                      1.5177 # instructions per cycle
sim_CPI                      0.6589 # cycles per instruction
sim_exec_BW                  1.5177 # total instructions (mis-spec + committed) per cycle
sim_IPB                      9.9654 # instruction per branch
IFQ_count                 263499771 # cumulative IFQ occupancy
IFQ_fcount                 65874733 # cumulative IFQ full count
ifq_occupancy                3.9990 # avg IFQ occupancy (insn's)
ifq_rate                     1.5177 # avg IFQ dispatch rate (insn/cycle)
ifq_latency                  2.6350 # avg IFQ occupant latency (cycle's)
ifq_full                     0.9997 # fraction of time (cycle's) IFQ was full
RUU_count                1471862036 # cumulative RUU occupancy
RUU_fcount                  6710014 # cumulative RUU full count
ruu_occupancy               22.3377 # avg RUU occupancy (insn's)
ruu_rate                     1.5177 # avg RUU dispatch rate (insn/cycle)
ruu_latency                 14.7186 # avg RUU occupant latency (cycle's)
ruu_full                     0.1018 # fraction of time (cycle's) RUU was full
LSQ_count                 469248323 # cumulative LSQ occupancy
LSQ_fcount                 39832848 # cumulative LSQ full count
lsq_occupancy                7.1216 # avg LSQ occupancy (insn's)
lsq_rate                     1.5177 # avg LSQ dispatch rate (insn/cycle)
lsq_latency                  4.6925 # avg LSQ occupant latency (cycle's)
lsq_full                     0.6045 # fraction of time (cycle's) LSQ was full
sim_slip                 2073295471 # total number of slip cycles
avg_sim_slip                20.7330 # the average slip between issue and retirement
il1.accesses              110943125 # total number of accesses
il1.hits                  110942975 # total number of hits
il1.misses                      150 # total number of misses
il1.replacements                  0 # total number of replacements
il1.writebacks                    0 # total number of writebacks
il1.invalidations                 0 # total number of invalidations
il1.miss_rate                0.0000 # miss rate (i.e., misses/ref)
il1.repl_rate                0.0000 # replacement rate (i.e., repls/ref)
il1.wb_rate                  0.0000 # writeback rate (i.e., wrbks/ref)
il1.inv_rate                 0.0000 # invalidation rate (i.e., invs/ref)
dl1.accesses               31991682 # total number of accesses
dl1.hits                   30800754 # total number of hits
dl1.misses                  1190928 # total number of misses
dl1.replacements            1190672 # total number of replacements
dl1.writebacks               450544 # total number of writebacks
dl1.invalidations                 0 # total number of invalidations
dl1.miss_rate                0.0372 # miss rate (i.e., misses/ref)
dl1.repl_rate                0.0372 # replacement rate (i.e., repls/ref)
dl1.wb_rate                  0.0141 # writeback rate (i.e., wrbks/ref)
dl1.inv_rate                 0.0000 # invalidation rate (i.e., invs/ref)
dl2.accesses                1641622 # total number of accesses
dl2.hits                    1316953 # total number of hits
dl2.misses                   324669 # total number of misses
dl2.replacements             322621 # total number of replacements
dl2.writebacks               157411 # total number of writebacks
dl2.invalidations                 0 # total number of invalidations
dl2.miss_rate                0.1978 # miss rate (i.e., misses/ref)
dl2.repl_rate                0.1965 # replacement rate (i.e., repls/ref)
dl2.wb_rate                  0.0959 # writeback rate (i.e., wrbks/ref)
dl2.inv_rate                 0.0000 # invalidation rate (i.e., invs/ref)
itlb.accesses             110943125 # total number of accesses
itlb.hits                 110943116 # total number of hits
itlb.misses                       9 # total number of misses
itlb.replacements                 0 # total number of replacements
itlb.writebacks                   0 # total number of writebacks
itlb.invalidations                0 # total number of invalidations
itlb.miss_rate               0.0000 # miss rate (i.e., misses/ref)
itlb.repl_rate               0.0000 # replacement rate (i.e., repls/ref)
itlb.wb_rate                 0.0000 # writeback rate (i.e., wrbks/ref)
itlb.inv_rate                0.0000 # invalidation rate (i.e., invs/ref)
dtlb.accesses              32185215 # total number of accesses
dtlb.hits                  32184972 # total number of hits
dtlb.misses                     243 # total number of misses
dtlb.replacements               115 # total number of replacements
dtlb.writebacks                   0 # total number of writebacks
dtlb.invalidations                0 # total number of invalidations
dtlb.miss_rate               0.0000 # miss rate (i.e., misses/ref)
dtlb.repl_rate               0.0000 # replacement rate (i.e., repls/ref)
dtlb.wb_rate                 0.0000 # writeback rate (i.e., wrbks/ref)
dtlb.inv_rate                0.0000 # invalidation rate (i.e., invs/ref)
rename_power           31911486.4979 # total power usage of rename unit
bpred_power            219845365.5438 # total power usage of bpred unit
window_power           255735054.6467 # total power usage of instruction window
lsq_power              77881743.5625 # total power usage of load/store queue
regfile_power          235394616.6850 # total power usage of arch. regfile
icache_power           199819340.2731 # total power usage of icache
dcache_power           424253649.4056 # total power usage of dcache
dcache2_power          204458987.0523 # total power usage of dcache2
alu_power              1248057536.4816 # total power usage of alu
falu_power             940995760.7721 # total power usage of falu
resultbus_power        181315172.3720 # total power usage of resultbus
clock_power            1872629172.6174 # total power usage of clock
avg_rename_power             0.4843 # avg power usage of rename unit
avg_bpred_power              3.3365 # avg power usage of bpred unit
avg_window_power             3.8812 # avg power usage of instruction window
avg_lsq_power                1.1820 # avg power usage of lsq
avg_regfile_power            3.5725 # avg power usage of arch. regfile
avg_icache_power             3.0326 # avg power usage of icache
avg_dcache_power             6.4387 # avg power usage of dcache
avg_dcache2_power            3.1030 # avg power usage of dcache2
avg_alu_power               18.9412 # avg power usage of alu
avg_falu_power              14.2810 # avg power usage of falu
avg_resultbus_power          2.7517 # avg power usage of resultbus
avg_clock_power             28.4200 # avg power usage of clock
fetch_stage_power      419664705.8169 # total power usage of fetch stage
dispatch_stage_power   31911486.4979 # total power usage of dispatch stage
issue_stage_power      2391702143.5207 # total power usage of issue stage
avg_fetch_power              6.3691 # average power of fetch unit per cycle
avg_dispatch_power           0.4843 # average power of dispatch unit per cycle
avg_issue_power             36.2977 # average power of issue unit per cycle
total_power            4951302125.1378 # total power per cycle
avg_total_power_cycle       75.1436 # average total power per cycle
avg_total_power_cycle_nofp_nod2      57.7595 # average total power per cycle
avg_total_power_insn        49.5130 # average total power per insn
avg_total_power_insn_nofp_nod2      38.0585 # average total power per insn
rename_power_cc1       15662998.4966 # total power usage of rename unit_cc1
bpred_power_cc1              0.0000 # total power usage of bpred unit_cc1
window_power_cc1       157582098.1628 # total power usage of instruction window_cc1
lsq_power_cc1          12825279.9675 # total power usage of lsq_cc1
regfile_power_cc1      113137309.7845 # total power usage of arch. regfile_cc1
icache_power_cc1       98076916.3089 # total power usage of icache_cc1
dcache_power_cc1       134116574.8210 # total power usage of dcache_cc1
dcache2_power_cc1      3664117.5401 # total power usage of dcache2_cc1
alu_power_cc1          171278560.4881 # total power usage of alu_cc1
resultbus_power_cc1    99282317.9142 # total power usage of resultbus_cc1
clock_power_cc1        523787067.9990 # total power usage of clock_cc1
avg_rename_power_cc1         0.2377 # avg power usage of rename unit_cc1
avg_bpred_power_cc1          0.0000 # avg power usage of bpred unit_cc1
avg_window_power_cc1         2.3915 # avg power usage of instruction window_cc1
avg_lsq_power_cc1            0.1946 # avg power usage of lsq_cc1
avg_regfile_power_cc1        1.7170 # avg power usage of arch. regfile_cc1
avg_icache_power_cc1         1.4885 # avg power usage of icache_cc1
avg_dcache_power_cc1         2.0354 # avg power usage of dcache_cc1
avg_dcache2_power_cc1        0.0556 # avg power usage of dcache2_cc1
avg_alu_power_cc1            2.5994 # avg power usage of alu_cc1
avg_resultbus_power_cc1       1.5068 # avg power usage of resultbus_cc1
avg_clock_power_cc1          7.9493 # avg power usage of clock_cc1
fetch_stage_power_cc1  98076916.3089 # total power usage of fetch stage_cc1
dispatch_stage_power_cc1 15662998.4966 # total power usage of dispatch stage_cc1
issue_stage_power_cc1  578748948.8936 # total power usage of issue stage_cc1
avg_fetch_power_cc1          1.4885 # average power of fetch unit per cycle_cc1
avg_dispatch_power_cc1       0.2377 # average power of dispatch unit per cycle_cc1
avg_issue_power_cc1          8.7834 # average power of issue unit per cycle_cc1
total_power_cycle_cc1  1329413241.4827 # total power per cycle_cc1
avg_total_power_cycle_cc1      20.1759 # average total power per cycle_cc1
avg_total_power_insn_cc1      13.2941 # average total power per insn_cc1
rename_power_cc2       12107636.1774 # total power usage of rename unit_cc2
bpred_power_cc2              0.0000 # total power usage of bpred unit_cc2
window_power_cc2       143958670.7136 # total power usage of instruction window_cc2
lsq_power_cc2          9048136.4503 # total power usage of lsq_cc2
regfile_power_cc2      38544875.7338 # total power usage of arch. regfile_cc2
icache_power_cc2       98076916.3089 # total power usage of icache_cc2
dcache_power_cc2       102992354.0087 # total power usage of dcache_cc2
dcache2_power_cc2      2546957.4673 # total power usage of dcache2_cc2
alu_power_cc2          116485543.5421 # total power usage of alu_cc2
resultbus_power_cc2    73694403.2272 # total power usage of resultbus_cc2
clock_power_cc2        389041411.4958 # total power usage of clock_cc2
avg_rename_power_cc2         0.1838 # avg power usage of rename unit_cc2
avg_bpred_power_cc2          0.0000 # avg power usage of bpred unit_cc2
avg_window_power_cc2         2.1848 # avg power usage of instruction window_cc2
avg_lsq_power_cc2            0.1373 # avg power usage of instruction lsq_cc2
avg_regfile_power_cc2        0.5850 # avg power usage of arch. regfile_cc2
avg_icache_power_cc2         1.4885 # avg power usage of icache_cc2
avg_dcache_power_cc2         1.5631 # avg power usage of dcache_cc2
avg_dcache2_power_cc2        0.0387 # avg power usage of dcache2_cc2
avg_alu_power_cc2            1.7678 # avg power usage of alu_cc2
avg_resultbus_power_cc2       1.1184 # avg power usage of resultbus_cc2
avg_clock_power_cc2          5.9043 # avg power usage of clock_cc2
fetch_stage_power_cc2  98076916.3089 # total power usage of fetch stage_cc2
dispatch_stage_power_cc2 12107636.1774 # total power usage of dispatch stage_cc2
issue_stage_power_cc2  448726065.4093 # total power usage of issue stage_cc2
avg_fetch_power_cc2          1.4885 # average power of fetch unit per cycle_cc2
avg_dispatch_power_cc2       0.1838 # average power of dispatch unit per cycle_cc2
avg_issue_power_cc2          6.8101 # average power of issue unit per cycle_cc2
total_power_cycle_cc2  986496905.1253 # total power per cycle_cc2
avg_total_power_cycle_cc2      14.9716 # average total power per cycle_cc2
avg_total_power_insn_cc2       9.8650 # average total power per insn_cc2
rename_power_cc3       13732484.9764 # total power usage of rename unit_cc3
bpred_power_cc3        21984536.5744 # total power usage of bpred unit_cc3
window_power_cc3       154543882.3086 # total power usage of instruction window_cc3
lsq_power_cc3          15521804.6813 # total power usage of lsq_cc3
regfile_power_cc3      49663987.2543 # total power usage of arch. regfile_cc3
icache_power_cc3       108251158.6504 # total power usage of icache_cc3
dcache_power_cc3       132721676.4729 # total power usage of dcache_cc3
dcache2_power_cc3      22628224.1203 # total power usage of dcache2_cc3
alu_power_cc3          224163440.6439 # total power usage of alu_cc3
resultbus_power_cc3    81256002.0594 # total power usage of resultbus_cc3
clock_power_cc3        523752948.4015 # total power usage of clock_cc3
avg_rename_power_cc3         0.2084 # avg power usage of rename unit_cc3
avg_bpred_power_cc3          0.3336 # avg power usage of bpred unit_cc3
avg_window_power_cc3         2.3454 # avg power usage of instruction window_cc3
avg_lsq_power_cc3            0.2356 # avg power usage of instruction lsq_cc3
avg_regfile_power_cc3        0.7537 # avg power usage of arch. regfile_cc3
avg_icache_power_cc3         1.6429 # avg power usage of icache_cc3
avg_dcache_power_cc3         2.0143 # avg power usage of dcache_cc3
avg_dcache2_power_cc3        0.3434 # avg power usage of dcache2_cc3
avg_alu_power_cc3            3.4020 # avg power usage of alu_cc3
avg_resultbus_power_cc3       1.2332 # avg power usage of resultbus_cc3
avg_clock_power_cc3          7.9487 # avg power usage of clock_cc3
fetch_stage_power_cc3  130235695.2248 # total power usage of fetch stage_cc3
dispatch_stage_power_cc3 13732484.9764 # total power usage of dispatch stage_cc3
issue_stage_power_cc3  630835030.2864 # total power usage of issue stage_cc3
avg_fetch_power_cc3          1.9765 # average power of fetch unit per cycle_cc3
avg_dispatch_power_cc3       0.2084 # average power of dispatch unit per cycle_cc3
avg_issue_power_cc3          9.5739 # average power of issue unit per cycle_cc3
total_power_cycle_cc3  1348220146.1434 # total power per cycle_cc3
avg_total_power_cycle_cc3      20.4613 # average total power per cycle_cc3
avg_total_power_insn_cc3      13.4822 # average total power per insn_cc3
total_rename_access       100000000 # total number accesses of rename unit
total_bpred_access                0 # total number accesses of bpred unit
total_window_access       375508501 # total number accesses of instruction window
total_lsq_access           32378749 # total number accesses of load/store queue
total_regfile_access      142676919 # total number accesses of arch. regfile
total_icache_access       110943125 # total number accesses of icache
total_dcache_access        31991682 # total number accesses of dcache
total_dcache2_access        1641622 # total number accesses of dcache2
total_alu_access           99984792 # total number accesses of alu
total_resultbus_access    114265929 # total number accesses of resultbus
avg_rename_access            1.5177 # avg number accesses of rename unit
avg_bpred_access             0.0000 # avg number accesses of bpred unit
avg_window_access            5.6989 # avg number accesses of instruction window
avg_lsq_access               0.4914 # avg number accesses of lsq
avg_regfile_access           2.1653 # avg number accesses of arch. regfile
avg_icache_access            1.6837 # avg number accesses of icache
avg_dcache_access            0.4855 # avg number accesses of dcache
avg_dcache2_access           0.0249 # avg number accesses of dcache2
avg_alu_access               1.5174 # avg number accesses of alu
avg_resultbus_access         1.7342 # avg number accesses of resultbus
max_rename_access                 4 # max number accesses of rename unit
max_bpred_access                  0 # max number accesses of bpred unit
max_window_access                18 # max number accesses of instruction window
max_lsq_access                    5 # max number accesses of load/store queue
max_regfile_access               10 # max number accesses of arch. regfile
max_icache_access                 4 # max number accesses of icache
max_dcache_access                 4 # max number accesses of dcache
max_dcache2_access                4 # max number accesses of dcache2
max_alu_access                    4 # max number accesses of alu
max_resultbus_access              7 # max number accesses of resultbus
max_cycle_power_cc1         42.6430 # maximum cycle power usage of cc1
max_cycle_power_cc2         36.1495 # maximum cycle power usage of cc2
max_cycle_power_cc3         39.8272 # maximum cycle power usage of cc3
sim_invalid_addrs                 0 # total non-speculative bogus addresses seen (debug var)
ld_text_base           0x0120000000 # program text (code) segment base
ld_text_size                 212992 # program text (code) size in bytes
ld_data_base           0x0140000000 # program initialized data segment base
ld_data_size                 402416 # program init'ed `.data' and uninit'ed `.bss' size in bytes
ld_stack_base          0x011ff9b000 # program stack segment base (highest address in stack)
ld_stack_size                 16384 # program initial stack size
ld_prog_entry          0x01200150ec # program entry point (initial PC)
ld_environ_base        0x011ff96ed0 # program environment base address address
ld_target_big_endian              0 # target executable endian-ness, non-zero if big endian
mem.page_count                23126 # total number of pages allocated
mem.page_mem                185008k # total size of memory pages allocated
mem.ptab_misses            10855423 # total first level page table misses
mem.ptab_accesses         921838922 # total page table accesses
mem.ptab_miss_rate           0.0118 # first level page table miss rate

