sim-outorder: SimpleScalar/Alpha Tool Set version 3.0 of August, 2003.
Copyright (c) 1994-2003 by Todd M. Austin, Ph.D. and SimpleScalar, LLC.
All Rights Reserved. This version of SimpleScalar is licensed for academic
non-commercial use.  No portion of this work may be used by any commercial
entity, or for any commercial purpose, without the prior written permission
of SimpleScalar, LLC (info@simplescalar.com).


Processor Parameters:
Issue Width: 4
Window Size: 32
Number of Virtual Registers: 32
Number of Physical Registers: 32
Datapath Width: 64
Total Power Consumption: 77.1436
Branch Predictor Power Consumption: 3.33649  (4.44%)
 branch target buffer power (W): 2.49493
 local predict power (W): 0.574771
 global predict power (W): 0.0996078
 chooser power (W): 0.0702439
 RAS power (W): 0.0969383
Rename Logic Power Consumption: 0.484305  (0.645%)
 Instruction Decode Power (W): 0.0159915
 RAT decode_power (W): 0.113514
 RAT wordline_power (W): 0.0354288
 RAT bitline_power (W): 0.308463
 DCL Comparators (W): 0.0109075
Instruction Window Power Consumption: 3.88117  (5.17%)
 tagdrive (W): 0.19858
 tagmatch (W): 0.0805895
 Selection Logic (W): 0.0295277
 decode_power (W): 0.113514
 wordline_power (W): 0.0844643
 bitline_power (W): 3.37449
Load/Store Queue Power Consumption: 1.18197  (1.57%)
 tagdrive (W): 0.457232
 tagmatch (W): 0.100774
 decode_power (W): 0.00799577
 wordline_power (W): 0.0150119
 bitline_power (W): 0.60096
Arch. Register File Power Consumption: 3.57247  (4.75%)
 decode_power (W): 0.113514
 wordline_power (W): 0.0844643
 bitline_power (W): 3.37449
Result Bus Power Consumption: 2.75173  (3.66%)
Total Clock Power: 28.42  (37.8%)
Int ALU Power: 4.66013  (6.2%)
FP ALU Power: 14.281  (19%)
Instruction Cache Power Consumption: 2.76773  (3.68%)
 decode_power (W): 0.151353
 wordline_power (W): 0.180479
 bitline_power (W): 1.42251
 senseamp_power (W): 0.768
 tagarray_power (W): 0.245382
Itlb_power (W): 0.264834 (0.352%)
Data Cache Power Consumption: 5.53546  (7.37%)
 decode_power (W): 0.302705
 wordline_power (W): 0.360958
 bitline_power (W): 2.84503
 senseamp_power (W): 1.536
 tagarray_power (W): 0.490764
Dtlb_power (W): 0.903238 (1.2%)
Level 2 Cache Power Consumption: 3.10298 (4.13%)
 decode_power (W): 0.19487
 wordline_power (W): 0.0430878
 bitline_power (W): 1.77274
 senseamp_power (W): 0.192
 tagarray_power (W): 0.900275
sim: loading EIO file: ../benchmarks/177.mesa.spec_ref.eio.gz
sim: command line: ./sim-outorder -config ../configs/current.config ../benchmarks/177.mesa.spec_ref.eio.gz 

sim: simulation started @ Mon Nov 23 21:20:37 2015, options follow:

sim-outorder: This simulator implements a very detailed out-of-order issue
superscalar processor with a two-level memory system and speculative
execution support.  This simulator is a performance simulator, tracking the
latency of all pipeline operations.

# -config                     # load configuration from a file
# -dumpconfig                 # dump configuration to a file
# -h                    false # print help message    
# -v                    false # verbose operation     
# -d                    false # enable debug message  
# -i                    false # start in Dlite debugger
-seed                       1 # random number generator seed (0 for timer seed)
# -q                    false # initialize and terminate immediately
# -chkpt               <null> # restore EIO trace execution from <fname>
# -redir:sim     ../results/15_01_ruu/177.mesa.spec_ref.eio.gz.out # redirect simulator output to file (non-interactive only)
# -redir:prog       /dev/null # redirect simulated program output to file
-nice                       0 # simulator scheduling priority
-freq            600000000.0000 # frequency             
-max:inst           100000000 # maximum number of inst's to execute
-fastfwd                    0 # number of insts skipped before timing starts
# -ptrace              <null> # generate pipetrace, i.e., <fname|stdout|stderr> <range>
-fetch:ifqsize              4 # instruction fetch queue size (in insts)
-fetch:mplat               15 # extra branch mis-prediction latency
-fetch:speed                1 # speed of front-end of machine relative to execution core
-bpred                perfect # branch predictor type {nottaken|taken|perfect|bimod|2lev|comb}
-bpred:bimod     2048 # bimodal predictor config (<table size>)
-bpred:2lev      1 16384 4 0 # 2-level predictor config (<l1size> <l2size> <hist_size> <xor>)
-bpred:comb      1024 # combining predictor config (<meta_table_size>)
-bpred:ras                  8 # return address stack size (0 for no return stack)
-bpred:btb       512 4 # BTB config (<num_sets> <associativity>)
# -bpred:spec_update       <null> # speculative predictors update in {ID|WB} (default non-spec)
-decode:width               4 # instruction decode B/W (insts/cycle)
-issue:width                4 # instruction issue B/W (insts/cycle)
-issue:inorder          false # run pipeline with in-order issue
-issue:wrongpath         true # issue instructions down wrong execution paths
-commit:width               4 # instruction commit B/W (insts/cycle)
-ruu:size                  32 # register update unit (RUU) size
-lsq:size                   8 # load/store queue (LSQ) size
-cache:dl1       dl1:32:64:8:f # l1 data cache config, i.e., {<config>|none}
-cache:dl1lat               1 # l1 data cache hit latency (in cycles)
-cache:dl2       dl2:256:64:8:f # l2 data cache config, i.e., {<config>|none}
-cache:dl2lat               2 # l2 data cache hit latency (in cycles)
-cache:il1       il1:32:64:8:f # l1 inst cache config, i.e., {<config>|dl1|dl2|none}
-cache:il1lat               1 # l1 instruction cache hit latency (in cycles)
-cache:il2                dl2 # l2 instruction cache config, i.e., {<config>|dl2|none}
-cache:il2lat               2 # l2 instruction cache hit latency (in cycles)
-cache:flush            false # flush caches on system calls
-cache:icompress        false # convert 64-bit inst addresses to 32-bit inst equivalents
-mem:lat         103 1 # memory access latency (<first_chunk> <inter_chunk>)
-mem:width                  8 # memory access bus width (in bytes)
-tlb:itlb        itlb:16:4096:4:l # instruction TLB config, i.e., {<config>|none}
-tlb:dtlb        dtlb:32:4096:4:l # data TLB config, i.e., {<config>|none}
-tlb:lat                   30 # inst/data TLB miss latency (in cycles)
-res:ialu                   4 # total number of integer ALU's available
-res:imult                  1 # total number of integer multiplier/dividers available
-res:memport                2 # total number of memory system ports available (to CPU)
-res:fpalu                  4 # total number of floating point ALU's available
-res:fpmult                 1 # total number of floating point multiplier/dividers available
# -pcstat              <null> # profile stat(s) against text addr's (mult uses ok)
-bugcompat              false # operate in backward-compatible bugs mode (for testing only)

  Pipetrace range arguments are formatted as follows:

    {{@|#}<start>}:{{@|#|+}<end>}

  Both ends of the range are optional, if neither are specified, the entire
  execution is traced.  Ranges that start with a `@' designate an address
  range to be traced, those that start with an `#' designate a cycle count
  range.  All other range values represent an instruction count range.  The
  second argument, if specified with a `+', indicates a value relative
  to the first argument, e.g., 1000:+100 == 1000:1100.  Program symbols may
  be used in all contexts.

    Examples:   -ptrace FOO.trc #0:#1000
                -ptrace BAR.trc @2000:
                -ptrace BLAH.trc :1500
                -ptrace UXXE.trc :
                -ptrace FOOBAR.trc @main:+278

  Branch predictor configuration examples for 2-level predictor:
    Configurations:   N, M, W, X
      N   # entries in first level (# of shift register(s))
      W   width of shift register(s)
      M   # entries in 2nd level (# of counters, or other FSM)
      X   (yes-1/no-0) xor history and address for 2nd level index
    Sample predictors:
      GAg     : 1, W, 2^W, 0
      GAp     : 1, W, M (M > 2^W), 0
      PAg     : N, W, 2^W, 0
      PAp     : N, W, M (M == 2^(N+W)), 0
      gshare  : 1, W, 2^W, 1
  Predictor `comb' combines a bimodal and a 2-level predictor.

  The cache config parameter <config> has the following format:

    <name>:<nsets>:<bsize>:<assoc>:<repl>

    <name>   - name of the cache being defined
    <nsets>  - number of sets in the cache
    <bsize>  - block size of the cache
    <assoc>  - associativity of the cache
    <repl>   - block replacement strategy, 'l'-LRU, 'f'-FIFO, 'r'-random

    Examples:   -cache:dl1 dl1:4096:32:1:l
                -dtlb dtlb:128:4096:32:r

  Cache levels can be unified by pointing a level of the instruction cache
  hierarchy at the data cache hiearchy using the "dl1" and "dl2" cache
  configuration arguments.  Most sensible combinations are supported, e.g.,

    A unified l2 cache (il2 is pointed at dl2):
      -cache:il1 il1:128:64:1:l -cache:il2 dl2
      -cache:dl1 dl1:256:32:1:l -cache:dl2 ul2:1024:64:2:l

    Or, a fully unified cache hierarchy (il1 pointed at dl1):
      -cache:il1 dl1
      -cache:dl1 ul1:256:32:1:l -cache:dl2 ul2:1024:64:2:l



sim: ** starting performance simulation **

sim: ** simulation statistics **
sim_num_insn              100000001 # total number of instructions committed
sim_num_refs               39005167 # total number of loads and stores committed
sim_num_loads              27138656 # total number of loads committed
sim_num_stores         11866511.0000 # total number of stores committed
sim_num_branches            8691668 # total number of branches committed
sim_elapsed_time                103 # total simulation time in seconds
sim_inst_rate           970873.7961 # simulation speed (in insts/sec)
sim_total_insn            100000001 # total number of instructions executed
sim_total_refs             39005167 # total number of loads and stores executed
sim_total_loads            27138656 # total number of loads executed
sim_total_stores       11866511.0000 # total number of stores executed
sim_total_branches          8691668 # total number of branches executed
sim_cycle                  54484441 # total simulation time in cycles
sim_IPC                      1.8354 # instructions per cycle
sim_CPI                      0.5448 # cycles per instruction
sim_exec_BW                  1.8354 # total instructions (mis-spec + committed) per cycle
sim_IPB                     11.5053 # instruction per branch
IFQ_count                 214918118 # cumulative IFQ occupancy
IFQ_fcount                 53722287 # cumulative IFQ full count
ifq_occupancy                3.9446 # avg IFQ occupancy (insn's)
ifq_rate                     1.8354 # avg IFQ dispatch rate (insn/cycle)
ifq_latency                  2.1492 # avg IFQ occupant latency (cycle's)
ifq_full                     0.9860 # fraction of time (cycle's) IFQ was full
RUU_count                 991815799 # cumulative RUU occupancy
RUU_fcount                  6019400 # cumulative RUU full count
ruu_occupancy               18.2037 # avg RUU occupancy (insn's)
ruu_rate                     1.8354 # avg RUU dispatch rate (insn/cycle)
ruu_latency                  9.9182 # avg RUU occupant latency (cycle's)
ruu_full                     0.1105 # fraction of time (cycle's) RUU was full
LSQ_count                 362108347 # cumulative LSQ occupancy
LSQ_fcount                 30810491 # cumulative LSQ full count
lsq_occupancy                6.6461 # avg LSQ occupancy (insn's)
lsq_rate                     1.8354 # avg LSQ dispatch rate (insn/cycle)
lsq_latency                  3.6211 # avg LSQ occupant latency (cycle's)
lsq_full                     0.5655 # fraction of time (cycle's) LSQ was full
sim_slip                 1492929168 # total number of slip cycles
avg_sim_slip                14.9293 # the average slip between issue and retirement
il1.accesses              110432808 # total number of accesses
il1.hits                  110394050 # total number of hits
il1.misses                    38758 # total number of misses
il1.replacements              38502 # total number of replacements
il1.writebacks                    0 # total number of writebacks
il1.invalidations                 0 # total number of invalidations
il1.miss_rate                0.0004 # miss rate (i.e., misses/ref)
il1.repl_rate                0.0003 # replacement rate (i.e., repls/ref)
il1.wb_rate                  0.0000 # writeback rate (i.e., wrbks/ref)
il1.inv_rate                 0.0000 # invalidation rate (i.e., invs/ref)
dl1.accesses               38037732 # total number of accesses
dl1.hits                   37772903 # total number of hits
dl1.misses                   264829 # total number of misses
dl1.replacements             264573 # total number of replacements
dl1.writebacks               204470 # total number of writebacks
dl1.invalidations                 0 # total number of invalidations
dl1.miss_rate                0.0070 # miss rate (i.e., misses/ref)
dl1.repl_rate                0.0070 # replacement rate (i.e., repls/ref)
dl1.wb_rate                  0.0054 # writeback rate (i.e., wrbks/ref)
dl1.inv_rate                 0.0000 # invalidation rate (i.e., invs/ref)
dl2.accesses                 508057 # total number of accesses
dl2.hits                     337853 # total number of hits
dl2.misses                   170204 # total number of misses
dl2.replacements             168156 # total number of replacements
dl2.writebacks               153875 # total number of writebacks
dl2.invalidations                 0 # total number of invalidations
dl2.miss_rate                0.3350 # miss rate (i.e., misses/ref)
dl2.repl_rate                0.3310 # replacement rate (i.e., repls/ref)
dl2.wb_rate                  0.3029 # writeback rate (i.e., wrbks/ref)
dl2.inv_rate                 0.0000 # invalidation rate (i.e., invs/ref)
itlb.accesses             110432808 # total number of accesses
itlb.hits                 110432755 # total number of hits
itlb.misses                      53 # total number of misses
itlb.replacements                 2 # total number of replacements
itlb.writebacks                   0 # total number of writebacks
itlb.invalidations                0 # total number of invalidations
itlb.miss_rate               0.0000 # miss rate (i.e., misses/ref)
itlb.repl_rate               0.0000 # replacement rate (i.e., repls/ref)
itlb.wb_rate                 0.0000 # writeback rate (i.e., wrbks/ref)
itlb.inv_rate                0.0000 # invalidation rate (i.e., invs/ref)
dtlb.accesses              39005163 # total number of accesses
dtlb.hits                  38960851 # total number of hits
dtlb.misses                   44312 # total number of misses
dtlb.replacements             44184 # total number of replacements
dtlb.writebacks                   0 # total number of writebacks
dtlb.invalidations                0 # total number of invalidations
dtlb.miss_rate               0.0011 # miss rate (i.e., misses/ref)
dtlb.repl_rate               0.0011 # replacement rate (i.e., repls/ref)
dtlb.wb_rate                 0.0000 # writeback rate (i.e., wrbks/ref)
dtlb.inv_rate                0.0000 # invalidation rate (i.e., invs/ref)
rename_power           26387111.5885 # total power usage of rename unit
bpred_power            181786711.6858 # total power usage of bpred unit
window_power           211463337.0181 # total power usage of instruction window
lsq_power              64399201.7696 # total power usage of load/store queue
regfile_power          194644145.5586 # total power usage of arch. regfile
icache_power           165227502.9869 # total power usage of icache
dcache_power           350808740.7254 # total power usage of dcache
dcache2_power          169063954.7442 # total power usage of dcache2
alu_power              1031999355.1763 # total power usage of alu
falu_power             778094751.4031 # total power usage of falu
resultbus_power        149926694.5036 # total power usage of resultbus
clock_power            1548447922.4104 # total power usage of clock
avg_rename_power             0.4843 # avg power usage of rename unit
avg_bpred_power              3.3365 # avg power usage of bpred unit
avg_window_power             3.8812 # avg power usage of instruction window
avg_lsq_power                1.1820 # avg power usage of lsq
avg_regfile_power            3.5725 # avg power usage of arch. regfile
avg_icache_power             3.0326 # avg power usage of icache
avg_dcache_power             6.4387 # avg power usage of dcache
avg_dcache2_power            3.1030 # avg power usage of dcache2
avg_alu_power               18.9412 # avg power usage of alu
avg_falu_power              14.2810 # avg power usage of falu
avg_resultbus_power          2.7517 # avg power usage of resultbus
avg_clock_power             28.4200 # avg power usage of clock
fetch_stage_power      347014214.6727 # total power usage of fetch stage
dispatch_stage_power   26387111.5885 # total power usage of dispatch stage
issue_stage_power      1977661283.9373 # total power usage of issue stage
avg_fetch_power              6.3691 # average power of fetch unit per cycle
avg_dispatch_power           0.4843 # average power of dispatch unit per cycle
avg_issue_power             36.2977 # average power of issue unit per cycle
total_power            4094154678.1674 # total power per cycle
avg_total_power_cycle       75.1436 # average total power per cycle
avg_total_power_cycle_nofp_nod2      57.7595 # average total power per cycle
avg_total_power_insn        40.9415 # average total power per insn
avg_total_power_insn_nofp_nod2      31.4700 # average total power per insn
rename_power_cc1       16030844.4656 # total power usage of rename unit_cc1
bpred_power_cc1              0.0000 # total power usage of bpred unit_cc1
window_power_cc1       170302069.9799 # total power usage of instruction window_cc1
lsq_power_cc1          15887280.0894 # total power usage of lsq_cc1
regfile_power_cc1      119948646.8346 # total power usage of arch. regfile_cc1
icache_power_cc1       100467716.2443 # total power usage of icache_cc1
dcache_power_cc1       165579387.3502 # total power usage of dcache_cc1
dcache2_power_cc1       936762.3122 # total power usage of dcache2_cc1
alu_power_cc1          315000522.3378 # total power usage of alu_cc1
resultbus_power_cc1    106625667.3301 # total power usage of resultbus_cc1
clock_power_cc1        508634443.1769 # total power usage of clock_cc1
avg_rename_power_cc1         0.2942 # avg power usage of rename unit_cc1
avg_bpred_power_cc1          0.0000 # avg power usage of bpred unit_cc1
avg_window_power_cc1         3.1257 # avg power usage of instruction window_cc1
avg_lsq_power_cc1            0.2916 # avg power usage of lsq_cc1
avg_regfile_power_cc1        2.2015 # avg power usage of arch. regfile_cc1
avg_icache_power_cc1         1.8440 # avg power usage of icache_cc1
avg_dcache_power_cc1         3.0390 # avg power usage of dcache_cc1
avg_dcache2_power_cc1        0.0172 # avg power usage of dcache2_cc1
avg_alu_power_cc1            5.7815 # avg power usage of alu_cc1
avg_resultbus_power_cc1       1.9570 # avg power usage of resultbus_cc1
avg_clock_power_cc1          9.3354 # avg power usage of clock_cc1
fetch_stage_power_cc1  100467716.2443 # total power usage of fetch stage_cc1
dispatch_stage_power_cc1 16030844.4656 # total power usage of dispatch stage_cc1
issue_stage_power_cc1  774331689.3995 # total power usage of issue stage_cc1
avg_fetch_power_cc1          1.8440 # average power of fetch unit per cycle_cc1
avg_dispatch_power_cc1       0.2942 # average power of dispatch unit per cycle_cc1
avg_issue_power_cc1         14.2120 # average power of issue unit per cycle_cc1
total_power_cycle_cc1  1519413340.1211 # total power per cycle_cc1
avg_total_power_cycle_cc1      27.8871 # average total power per cycle_cc1
avg_total_power_insn_cc1      15.1941 # average total power per insn_cc1
rename_power_cc2       12107636.2987 # total power usage of rename unit_cc2
bpred_power_cc2              0.0000 # total power usage of bpred unit_cc2
window_power_cc2       145952964.0193 # total power usage of instruction window_cc2
lsq_power_cc2          10836326.4758 # total power usage of lsq_cc2
regfile_power_cc2      43112424.7148 # total power usage of arch. regfile_cc2
icache_power_cc2       100467716.2443 # total power usage of icache_cc2
dcache_power_cc2       122456692.3451 # total power usage of dcache_cc2
dcache2_power_cc2       788244.5350 # total power usage of dcache2_cc2
alu_power_cc2          148664189.4740 # total power usage of alu_cc2
resultbus_power_cc2    76390916.0366 # total power usage of resultbus_cc2
clock_power_cc2        337714560.7323 # total power usage of clock_cc2
avg_rename_power_cc2         0.2222 # avg power usage of rename unit_cc2
avg_bpred_power_cc2          0.0000 # avg power usage of bpred unit_cc2
avg_window_power_cc2         2.6788 # avg power usage of instruction window_cc2
avg_lsq_power_cc2            0.1989 # avg power usage of instruction lsq_cc2
avg_regfile_power_cc2        0.7913 # avg power usage of arch. regfile_cc2
avg_icache_power_cc2         1.8440 # avg power usage of icache_cc2
avg_dcache_power_cc2         2.2476 # avg power usage of dcache_cc2
avg_dcache2_power_cc2        0.0145 # avg power usage of dcache2_cc2
avg_alu_power_cc2            2.7286 # avg power usage of alu_cc2
avg_resultbus_power_cc2       1.4021 # avg power usage of resultbus_cc2
avg_clock_power_cc2          6.1984 # avg power usage of clock_cc2
fetch_stage_power_cc2  100467716.2443 # total power usage of fetch stage_cc2
dispatch_stage_power_cc2 12107636.2987 # total power usage of dispatch stage_cc2
issue_stage_power_cc2  505089332.8857 # total power usage of issue stage_cc2
avg_fetch_power_cc2          1.8440 # average power of fetch unit per cycle_cc2
avg_dispatch_power_cc2       0.2222 # average power of dispatch unit per cycle_cc2
avg_issue_power_cc2          9.2703 # average power of issue unit per cycle_cc2
total_power_cycle_cc2  998491670.8759 # total power per cycle_cc2
avg_total_power_cycle_cc2      18.3262 # average total power per cycle_cc2
avg_total_power_insn_cc2       9.9849 # average total power per insn_cc2
rename_power_cc3       13143263.0093 # total power usage of rename unit_cc3
bpred_power_cc3        18178671.1716 # total power usage of bpred unit_cc3
window_power_cc3       150159704.8975 # total power usage of instruction window_cc3
lsq_power_cc3          15606470.3163 # total power usage of lsq_cc3
regfile_power_cc3      48922559.3833 # total power usage of arch. regfile_cc3
icache_power_cc3       106943694.8917 # total power usage of icache_cc3
dcache_power_cc3       141719613.4724 # total power usage of dcache_cc3
dcache2_power_cc3      17601284.1720 # total power usage of dcache2_cc3
alu_power_cc3          220364072.4507 # total power usage of alu_cc3
resultbus_power_cc3    80141410.4652 # total power usage of resultbus_cc3
clock_power_cc3        441067413.7028 # total power usage of clock_cc3
avg_rename_power_cc3         0.2412 # avg power usage of rename unit_cc3
avg_bpred_power_cc3          0.3336 # avg power usage of bpred unit_cc3
avg_window_power_cc3         2.7560 # avg power usage of instruction window_cc3
avg_lsq_power_cc3            0.2864 # avg power usage of instruction lsq_cc3
avg_regfile_power_cc3        0.8979 # avg power usage of arch. regfile_cc3
avg_icache_power_cc3         1.9628 # avg power usage of icache_cc3
avg_dcache_power_cc3         2.6011 # avg power usage of dcache_cc3
avg_dcache2_power_cc3        0.3231 # avg power usage of dcache2_cc3
avg_alu_power_cc3            4.0445 # avg power usage of alu_cc3
avg_resultbus_power_cc3       1.4709 # avg power usage of resultbus_cc3
avg_clock_power_cc3          8.0953 # avg power usage of clock_cc3
fetch_stage_power_cc3  125122366.0633 # total power usage of fetch stage_cc3
dispatch_stage_power_cc3 13143263.0093 # total power usage of dispatch stage_cc3
issue_stage_power_cc3  625592555.7741 # total power usage of issue stage_cc3
avg_fetch_power_cc3          2.2965 # average power of fetch unit per cycle_cc3
avg_dispatch_power_cc3       0.2412 # average power of dispatch unit per cycle_cc3
avg_issue_power_cc3         11.4820 # average power of issue unit per cycle_cc3
total_power_cycle_cc3  1253848157.9328 # total power per cycle_cc3
avg_total_power_cycle_cc3      23.0130 # average total power per cycle_cc3
avg_total_power_insn_cc3      12.5385 # average total power per insn_cc3
total_rename_access       100000001 # total number accesses of rename unit
total_bpred_access                0 # total number accesses of bpred unit
total_window_access       395922468 # total number accesses of instruction window
total_lsq_access           39972594 # total number accesses of load/store queue
total_regfile_access      166579177 # total number accesses of arch. regfile
total_icache_access       110432808 # total number accesses of icache
total_dcache_access        38037732 # total number accesses of dcache
total_dcache2_access         508057 # total number accesses of dcache2
total_alu_access           99864436 # total number accesses of alu
total_resultbus_access    118446973 # total number accesses of resultbus
avg_rename_access            1.8354 # avg number accesses of rename unit
avg_bpred_access             0.0000 # avg number accesses of bpred unit
avg_window_access            7.2667 # avg number accesses of instruction window
avg_lsq_access               0.7337 # avg number accesses of lsq
avg_regfile_access           3.0574 # avg number accesses of arch. regfile
avg_icache_access            2.0269 # avg number accesses of icache
avg_dcache_access            0.6981 # avg number accesses of dcache
avg_dcache2_access           0.0093 # avg number accesses of dcache2
avg_alu_access               1.8329 # avg number accesses of alu
avg_resultbus_access         2.1740 # avg number accesses of resultbus
max_rename_access                 4 # max number accesses of rename unit
max_bpred_access                  0 # max number accesses of bpred unit
max_window_access                18 # max number accesses of instruction window
max_lsq_access                    6 # max number accesses of load/store queue
max_regfile_access               12 # max number accesses of arch. regfile
max_icache_access                 4 # max number accesses of icache
max_dcache_access                 4 # max number accesses of dcache
max_dcache2_access                5 # max number accesses of dcache2
max_alu_access                    4 # max number accesses of alu
max_resultbus_access              8 # max number accesses of resultbus
max_cycle_power_cc1         59.1800 # maximum cycle power usage of cc1
max_cycle_power_cc2         39.4409 # maximum cycle power usage of cc2
max_cycle_power_cc3         41.4560 # maximum cycle power usage of cc3
sim_invalid_addrs                 0 # total non-speculative bogus addresses seen (debug var)
ld_text_base           0x0120000000 # program text (code) segment base
ld_text_size                 917504 # program text (code) size in bytes
ld_data_base           0x0140000000 # program initialized data segment base
ld_data_size                  91168 # program init'ed `.data' and uninit'ed `.bss' size in bytes
ld_stack_base          0x011ff9b000 # program stack segment base (highest address in stack)
ld_stack_size                 16384 # program initial stack size
ld_prog_entry          0x0120073d5c # program entry point (initial PC)
ld_environ_base        0x011ff96df0 # program environment base address address
ld_target_big_endian              0 # target executable endian-ness, non-zero if big endian
mem.page_count                 1310 # total number of pages allocated
mem.page_mem                 10480k # total size of memory pages allocated
mem.ptab_misses                1843 # total first level page table misses
mem.ptab_accesses         668795582 # total page table accesses
mem.ptab_miss_rate           0.0000 # first level page table miss rate

