sim-outorder: SimpleScalar/Alpha Tool Set version 3.0 of August, 2003.
Copyright (c) 1994-2003 by Todd M. Austin, Ph.D. and SimpleScalar, LLC.
All Rights Reserved. This version of SimpleScalar is licensed for academic
non-commercial use.  No portion of this work may be used by any commercial
entity, or for any commercial purpose, without the prior written permission
of SimpleScalar, LLC (info@simplescalar.com).


Processor Parameters:
Issue Width: 4
Window Size: 32
Number of Virtual Registers: 32
Number of Physical Registers: 32
Datapath Width: 64
Total Power Consumption: 77.1436
Branch Predictor Power Consumption: 3.33649  (4.44%)
 branch target buffer power (W): 2.49493
 local predict power (W): 0.574771
 global predict power (W): 0.0996078
 chooser power (W): 0.0702439
 RAS power (W): 0.0969383
Rename Logic Power Consumption: 0.484305  (0.645%)
 Instruction Decode Power (W): 0.0159915
 RAT decode_power (W): 0.113514
 RAT wordline_power (W): 0.0354288
 RAT bitline_power (W): 0.308463
 DCL Comparators (W): 0.0109075
Instruction Window Power Consumption: 3.88117  (5.17%)
 tagdrive (W): 0.19858
 tagmatch (W): 0.0805895
 Selection Logic (W): 0.0295277
 decode_power (W): 0.113514
 wordline_power (W): 0.0844643
 bitline_power (W): 3.37449
Load/Store Queue Power Consumption: 1.18197  (1.57%)
 tagdrive (W): 0.457232
 tagmatch (W): 0.100774
 decode_power (W): 0.00799577
 wordline_power (W): 0.0150119
 bitline_power (W): 0.60096
Arch. Register File Power Consumption: 3.57247  (4.75%)
 decode_power (W): 0.113514
 wordline_power (W): 0.0844643
 bitline_power (W): 3.37449
Result Bus Power Consumption: 2.75173  (3.66%)
Total Clock Power: 28.42  (37.8%)
Int ALU Power: 4.66013  (6.2%)
FP ALU Power: 14.281  (19%)
Instruction Cache Power Consumption: 2.76773  (3.68%)
 decode_power (W): 0.151353
 wordline_power (W): 0.180479
 bitline_power (W): 1.42251
 senseamp_power (W): 0.768
 tagarray_power (W): 0.245382
Itlb_power (W): 0.264834 (0.352%)
Data Cache Power Consumption: 5.53546  (7.37%)
 decode_power (W): 0.302705
 wordline_power (W): 0.360958
 bitline_power (W): 2.84503
 senseamp_power (W): 1.536
 tagarray_power (W): 0.490764
Dtlb_power (W): 0.903238 (1.2%)
Level 2 Cache Power Consumption: 3.10298 (4.13%)
 decode_power (W): 0.19487
 wordline_power (W): 0.0430878
 bitline_power (W): 1.77274
 senseamp_power (W): 0.192
 tagarray_power (W): 0.900275
sim: loading EIO file: ../benchmarks/179.art.110-ref.eio.gz
sim: command line: ./sim-outorder -config ../configs/current.config ../benchmarks/179.art.110-ref.eio.gz 

sim: simulation started @ Mon Nov 23 21:20:36 2015, options follow:

sim-outorder: This simulator implements a very detailed out-of-order issue
superscalar processor with a two-level memory system and speculative
execution support.  This simulator is a performance simulator, tracking the
latency of all pipeline operations.

# -config                     # load configuration from a file
# -dumpconfig                 # dump configuration to a file
# -h                    false # print help message    
# -v                    false # verbose operation     
# -d                    false # enable debug message  
# -i                    false # start in Dlite debugger
-seed                       1 # random number generator seed (0 for timer seed)
# -q                    false # initialize and terminate immediately
# -chkpt               <null> # restore EIO trace execution from <fname>
# -redir:sim     ../results/15_01_ruu/179.art.110-ref.eio.gz.out # redirect simulator output to file (non-interactive only)
# -redir:prog       /dev/null # redirect simulated program output to file
-nice                       0 # simulator scheduling priority
-freq            600000000.0000 # frequency             
-max:inst           100000000 # maximum number of inst's to execute
-fastfwd                    0 # number of insts skipped before timing starts
# -ptrace              <null> # generate pipetrace, i.e., <fname|stdout|stderr> <range>
-fetch:ifqsize              4 # instruction fetch queue size (in insts)
-fetch:mplat               15 # extra branch mis-prediction latency
-fetch:speed                1 # speed of front-end of machine relative to execution core
-bpred                perfect # branch predictor type {nottaken|taken|perfect|bimod|2lev|comb}
-bpred:bimod     2048 # bimodal predictor config (<table size>)
-bpred:2lev      1 16384 4 0 # 2-level predictor config (<l1size> <l2size> <hist_size> <xor>)
-bpred:comb      1024 # combining predictor config (<meta_table_size>)
-bpred:ras                  8 # return address stack size (0 for no return stack)
-bpred:btb       512 4 # BTB config (<num_sets> <associativity>)
# -bpred:spec_update       <null> # speculative predictors update in {ID|WB} (default non-spec)
-decode:width               4 # instruction decode B/W (insts/cycle)
-issue:width                4 # instruction issue B/W (insts/cycle)
-issue:inorder          false # run pipeline with in-order issue
-issue:wrongpath         true # issue instructions down wrong execution paths
-commit:width               4 # instruction commit B/W (insts/cycle)
-ruu:size                  32 # register update unit (RUU) size
-lsq:size                   8 # load/store queue (LSQ) size
-cache:dl1       dl1:32:64:8:f # l1 data cache config, i.e., {<config>|none}
-cache:dl1lat               1 # l1 data cache hit latency (in cycles)
-cache:dl2       dl2:256:64:8:f # l2 data cache config, i.e., {<config>|none}
-cache:dl2lat               2 # l2 data cache hit latency (in cycles)
-cache:il1       il1:32:64:8:f # l1 inst cache config, i.e., {<config>|dl1|dl2|none}
-cache:il1lat               1 # l1 instruction cache hit latency (in cycles)
-cache:il2                dl2 # l2 instruction cache config, i.e., {<config>|dl2|none}
-cache:il2lat               2 # l2 instruction cache hit latency (in cycles)
-cache:flush            false # flush caches on system calls
-cache:icompress        false # convert 64-bit inst addresses to 32-bit inst equivalents
-mem:lat         103 1 # memory access latency (<first_chunk> <inter_chunk>)
-mem:width                  8 # memory access bus width (in bytes)
-tlb:itlb        itlb:16:4096:4:l # instruction TLB config, i.e., {<config>|none}
-tlb:dtlb        dtlb:32:4096:4:l # data TLB config, i.e., {<config>|none}
-tlb:lat                   30 # inst/data TLB miss latency (in cycles)
-res:ialu                   4 # total number of integer ALU's available
-res:imult                  1 # total number of integer multiplier/dividers available
-res:memport                2 # total number of memory system ports available (to CPU)
-res:fpalu                  4 # total number of floating point ALU's available
-res:fpmult                 1 # total number of floating point multiplier/dividers available
# -pcstat              <null> # profile stat(s) against text addr's (mult uses ok)
-bugcompat              false # operate in backward-compatible bugs mode (for testing only)

  Pipetrace range arguments are formatted as follows:

    {{@|#}<start>}:{{@|#|+}<end>}

  Both ends of the range are optional, if neither are specified, the entire
  execution is traced.  Ranges that start with a `@' designate an address
  range to be traced, those that start with an `#' designate a cycle count
  range.  All other range values represent an instruction count range.  The
  second argument, if specified with a `+', indicates a value relative
  to the first argument, e.g., 1000:+100 == 1000:1100.  Program symbols may
  be used in all contexts.

    Examples:   -ptrace FOO.trc #0:#1000
                -ptrace BAR.trc @2000:
                -ptrace BLAH.trc :1500
                -ptrace UXXE.trc :
                -ptrace FOOBAR.trc @main:+278

  Branch predictor configuration examples for 2-level predictor:
    Configurations:   N, M, W, X
      N   # entries in first level (# of shift register(s))
      W   width of shift register(s)
      M   # entries in 2nd level (# of counters, or other FSM)
      X   (yes-1/no-0) xor history and address for 2nd level index
    Sample predictors:
      GAg     : 1, W, 2^W, 0
      GAp     : 1, W, M (M > 2^W), 0
      PAg     : N, W, 2^W, 0
      PAp     : N, W, M (M == 2^(N+W)), 0
      gshare  : 1, W, 2^W, 1
  Predictor `comb' combines a bimodal and a 2-level predictor.

  The cache config parameter <config> has the following format:

    <name>:<nsets>:<bsize>:<assoc>:<repl>

    <name>   - name of the cache being defined
    <nsets>  - number of sets in the cache
    <bsize>  - block size of the cache
    <assoc>  - associativity of the cache
    <repl>   - block replacement strategy, 'l'-LRU, 'f'-FIFO, 'r'-random

    Examples:   -cache:dl1 dl1:4096:32:1:l
                -dtlb dtlb:128:4096:32:r

  Cache levels can be unified by pointing a level of the instruction cache
  hierarchy at the data cache hiearchy using the "dl1" and "dl2" cache
  configuration arguments.  Most sensible combinations are supported, e.g.,

    A unified l2 cache (il2 is pointed at dl2):
      -cache:il1 il1:128:64:1:l -cache:il2 dl2
      -cache:dl1 dl1:256:32:1:l -cache:dl2 ul2:1024:64:2:l

    Or, a fully unified cache hierarchy (il1 pointed at dl1):
      -cache:il1 dl1
      -cache:dl1 ul1:256:32:1:l -cache:dl2 ul2:1024:64:2:l



sim: ** starting performance simulation **

sim: ** simulation statistics **
sim_num_insn              100000000 # total number of instructions committed
sim_num_refs               32313275 # total number of loads and stores committed
sim_num_loads              24977025 # total number of loads committed
sim_num_stores         7336250.0000 # total number of stores committed
sim_num_branches           14258407 # total number of branches committed
sim_elapsed_time                211 # total simulation time in seconds
sim_inst_rate           473933.6493 # simulation speed (in insts/sec)
sim_total_insn            100000000 # total number of instructions executed
sim_total_refs             32313275 # total number of loads and stores executed
sim_total_loads            24977025 # total number of loads executed
sim_total_stores       7336250.0000 # total number of stores executed
sim_total_branches         14258407 # total number of branches executed
sim_cycle                 429627295 # total simulation time in cycles
sim_IPC                      0.2328 # instructions per cycle
sim_CPI                      4.2963 # cycles per instruction
sim_exec_BW                  0.2328 # total instructions (mis-spec + committed) per cycle
sim_IPB                      7.0134 # instruction per branch
IFQ_count                1718438867 # cumulative IFQ occupancy
IFQ_fcount                429609112 # cumulative IFQ full count
ifq_occupancy                3.9998 # avg IFQ occupancy (insn's)
ifq_rate                     0.2328 # avg IFQ dispatch rate (insn/cycle)
ifq_latency                 17.1844 # avg IFQ occupant latency (cycle's)
ifq_full                     1.0000 # fraction of time (cycle's) IFQ was full
RUU_count                7335453476 # cumulative RUU occupancy
RUU_fcount                 81627182 # cumulative RUU full count
ruu_occupancy               17.0740 # avg RUU occupancy (insn's)
ruu_rate                     0.2328 # avg RUU dispatch rate (insn/cycle)
ruu_latency                 73.3545 # avg RUU occupant latency (cycle's)
ruu_full                     0.1900 # fraction of time (cycle's) RUU was full
LSQ_count                3022419638 # cumulative LSQ occupancy
LSQ_fcount                327838131 # cumulative LSQ full count
lsq_occupancy                7.0350 # avg LSQ occupancy (insn's)
lsq_rate                     0.2328 # avg LSQ dispatch rate (insn/cycle)
lsq_latency                 30.2242 # avg LSQ occupant latency (cycle's)
lsq_full                     0.7631 # fraction of time (cycle's) LSQ was full
sim_slip                10490186300 # total number of slip cycles
avg_sim_slip               104.9019 # the average slip between issue and retirement
il1.accesses              115617741 # total number of accesses
il1.hits                  115617576 # total number of hits
il1.misses                      165 # total number of misses
il1.replacements                  0 # total number of replacements
il1.writebacks                    0 # total number of writebacks
il1.invalidations                 0 # total number of invalidations
il1.miss_rate                0.0000 # miss rate (i.e., misses/ref)
il1.repl_rate                0.0000 # replacement rate (i.e., repls/ref)
il1.wb_rate                  0.0000 # writeback rate (i.e., wrbks/ref)
il1.inv_rate                 0.0000 # invalidation rate (i.e., invs/ref)
dl1.accesses               32025636 # total number of accesses
dl1.hits                   21557362 # total number of hits
dl1.misses                 10468274 # total number of misses
dl1.replacements           10468018 # total number of replacements
dl1.writebacks              3447516 # total number of writebacks
dl1.invalidations                 0 # total number of invalidations
dl1.miss_rate                0.3269 # miss rate (i.e., misses/ref)
dl1.repl_rate                0.3269 # replacement rate (i.e., repls/ref)
dl1.wb_rate                  0.1076 # writeback rate (i.e., wrbks/ref)
dl1.inv_rate                 0.0000 # invalidation rate (i.e., invs/ref)
dl2.accesses               13915955 # total number of accesses
dl2.hits                    3477197 # total number of hits
dl2.misses                 10438758 # total number of misses
dl2.replacements           10436710 # total number of replacements
dl2.writebacks              3424137 # total number of writebacks
dl2.invalidations                 0 # total number of invalidations
dl2.miss_rate                0.7501 # miss rate (i.e., misses/ref)
dl2.repl_rate                0.7500 # replacement rate (i.e., repls/ref)
dl2.wb_rate                  0.2461 # writeback rate (i.e., wrbks/ref)
dl2.inv_rate                 0.0000 # invalidation rate (i.e., invs/ref)
itlb.accesses             115617741 # total number of accesses
itlb.hits                 115617734 # total number of hits
itlb.misses                       7 # total number of misses
itlb.replacements                 0 # total number of replacements
itlb.writebacks                   0 # total number of writebacks
itlb.invalidations                0 # total number of invalidations
itlb.miss_rate               0.0000 # miss rate (i.e., misses/ref)
itlb.repl_rate               0.0000 # replacement rate (i.e., repls/ref)
itlb.wb_rate                 0.0000 # writeback rate (i.e., wrbks/ref)
itlb.inv_rate                0.0000 # invalidation rate (i.e., invs/ref)
dtlb.accesses              32313270 # total number of accesses
dtlb.hits                  32046594 # total number of hits
dtlb.misses                  266676 # total number of misses
dtlb.replacements            266548 # total number of replacements
dtlb.writebacks                   0 # total number of writebacks
dtlb.invalidations                0 # total number of invalidations
dtlb.miss_rate               0.0083 # miss rate (i.e., misses/ref)
dtlb.repl_rate               0.0082 # replacement rate (i.e., repls/ref)
dtlb.wb_rate                 0.0000 # writeback rate (i.e., wrbks/ref)
dtlb.inv_rate                0.0000 # invalidation rate (i.e., invs/ref)
rename_power           208070837.7018 # total power usage of rename unit
bpred_power            1433446529.9824 # total power usage of bpred unit
window_power           1667456250.7750 # total power usage of instruction window
lsq_power              507808366.2131 # total power usage of load/store queue
regfile_power          1534831523.2959 # total power usage of arch. regfile
icache_power           1302871860.3288 # total power usage of icache
dcache_power           2766239446.3935 # total power usage of dcache
dcache2_power          1333123526.0667 # total power usage of dcache2
alu_power              8137645975.6614 # total power usage of alu
falu_power             6135526715.8081 # total power usage of falu
resultbus_power        1182220080.5103 # total power usage of resultbus
clock_power            12210008577.2397 # total power usage of clock
avg_rename_power             0.4843 # avg power usage of rename unit
avg_bpred_power              3.3365 # avg power usage of bpred unit
avg_window_power             3.8812 # avg power usage of instruction window
avg_lsq_power                1.1820 # avg power usage of lsq
avg_regfile_power            3.5725 # avg power usage of arch. regfile
avg_icache_power             3.0326 # avg power usage of icache
avg_dcache_power             6.4387 # avg power usage of dcache
avg_dcache2_power            3.1030 # avg power usage of dcache2
avg_alu_power               18.9412 # avg power usage of alu
avg_falu_power              14.2810 # avg power usage of falu
avg_resultbus_power          2.7517 # avg power usage of resultbus
avg_clock_power             28.4200 # avg power usage of clock
fetch_stage_power      2736318390.3113 # total power usage of fetch stage
dispatch_stage_power   208070837.7018 # total power usage of dispatch stage
issue_stage_power      15594493645.6200 # total power usage of issue stage
avg_fetch_power              6.3691 # average power of fetch unit per cycle
avg_dispatch_power           0.4843 # average power of dispatch unit per cycle
avg_issue_power             36.2977 # average power of issue unit per cycle
total_power            32283722974.1686 # total power per cycle
avg_total_power_cycle       75.1436 # average total power per cycle
avg_total_power_cycle_nofp_nod2      57.7595 # average total power per cycle
avg_total_power_insn       322.8372 # average total power per insn
avg_total_power_insn_nofp_nod2     248.1507 # average total power per insn
rename_power_cc1       17574538.0540 # total power usage of rename unit_cc1
bpred_power_cc1              0.0000 # total power usage of bpred unit_cc1
window_power_cc1       255857410.8335 # total power usage of instruction window_cc1
lsq_power_cc1          14725347.5369 # total power usage of lsq_cc1
regfile_power_cc1      130063177.2605 # total power usage of arch. regfile_cc1
icache_power_cc1       110046245.5922 # total power usage of icache_cc1
dcache_power_cc1       158621916.1910 # total power usage of dcache_cc1
dcache2_power_cc1      28675131.2077 # total power usage of dcache2_cc1
alu_power_cc1          407482369.9511 # total power usage of alu_cc1
resultbus_power_cc1    149234835.2820 # total power usage of resultbus_cc1
clock_power_cc1        815467399.8608 # total power usage of clock_cc1
avg_rename_power_cc1         0.0409 # avg power usage of rename unit_cc1
avg_bpred_power_cc1          0.0000 # avg power usage of bpred unit_cc1
avg_window_power_cc1         0.5955 # avg power usage of instruction window_cc1
avg_lsq_power_cc1            0.0343 # avg power usage of lsq_cc1
avg_regfile_power_cc1        0.3027 # avg power usage of arch. regfile_cc1
avg_icache_power_cc1         0.2561 # avg power usage of icache_cc1
avg_dcache_power_cc1         0.3692 # avg power usage of dcache_cc1
avg_dcache2_power_cc1        0.0667 # avg power usage of dcache2_cc1
avg_alu_power_cc1            0.9485 # avg power usage of alu_cc1
avg_resultbus_power_cc1       0.3474 # avg power usage of resultbus_cc1
avg_clock_power_cc1          1.8981 # avg power usage of clock_cc1
fetch_stage_power_cc1  110046245.5922 # total power usage of fetch stage_cc1
dispatch_stage_power_cc1 17574538.0540 # total power usage of dispatch stage_cc1
issue_stage_power_cc1  1014597011.0022 # total power usage of issue stage_cc1
avg_fetch_power_cc1          0.2561 # average power of fetch unit per cycle_cc1
avg_dispatch_power_cc1       0.0409 # average power of dispatch unit per cycle_cc1
avg_issue_power_cc1          2.3616 # average power of issue unit per cycle_cc1
total_power_cycle_cc1  2087748371.7696 # total power per cycle_cc1
avg_total_power_cycle_cc1       4.8594 # average total power per cycle_cc1
avg_total_power_insn_cc1      20.8775 # average total power per insn_cc1
rename_power_cc2       12107636.1797 # total power usage of rename unit_cc2
bpred_power_cc2              0.0000 # total power usage of bpred unit_cc2
window_power_cc2       147478526.0597 # total power usage of instruction window_cc2
lsq_power_cc2          9102461.8315 # total power usage of lsq_cc2
regfile_power_cc2      45828301.1143 # total power usage of arch. regfile_cc2
icache_power_cc2       110046245.5922 # total power usage of icache_cc2
dcache_power_cc2       103101663.7628 # total power usage of dcache_cc2
dcache2_power_cc2      21590442.5650 # total power usage of dcache2_cc2
alu_power_cc2          163689767.3699 # total power usage of alu_cc2
resultbus_power_cc2    71406598.3319 # total power usage of resultbus_cc2
clock_power_cc2        437334172.4247 # total power usage of clock_cc2
avg_rename_power_cc2         0.0282 # avg power usage of rename unit_cc2
avg_bpred_power_cc2          0.0000 # avg power usage of bpred unit_cc2
avg_window_power_cc2         0.3433 # avg power usage of instruction window_cc2
avg_lsq_power_cc2            0.0212 # avg power usage of instruction lsq_cc2
avg_regfile_power_cc2        0.1067 # avg power usage of arch. regfile_cc2
avg_icache_power_cc2         0.2561 # avg power usage of icache_cc2
avg_dcache_power_cc2         0.2400 # avg power usage of dcache_cc2
avg_dcache2_power_cc2        0.0503 # avg power usage of dcache2_cc2
avg_alu_power_cc2            0.3810 # avg power usage of alu_cc2
avg_resultbus_power_cc2       0.1662 # avg power usage of resultbus_cc2
avg_clock_power_cc2          1.0179 # avg power usage of clock_cc2
fetch_stage_power_cc2  110046245.5922 # total power usage of fetch stage_cc2
dispatch_stage_power_cc2 12107636.1797 # total power usage of dispatch stage_cc2
issue_stage_power_cc2  516369459.9208 # total power usage of issue stage_cc2
avg_fetch_power_cc2          0.2561 # average power of fetch unit per cycle_cc2
avg_dispatch_power_cc2       0.0282 # average power of dispatch unit per cycle_cc2
avg_issue_power_cc2          1.2019 # average power of issue unit per cycle_cc2
total_power_cycle_cc2  1121685815.2317 # total power per cycle_cc2
avg_total_power_cycle_cc2       2.6108 # average total power per cycle_cc2
avg_total_power_insn_cc2      11.2169 # average total power per insn_cc2
rename_power_cc3       31157266.1027 # total power usage of rename unit_cc3
bpred_power_cc3        143344652.8265 # total power usage of bpred unit_cc3
window_power_cc3       287420279.9631 # total power usage of instruction window_cc3
lsq_power_cc3          58374282.6324 # total power usage of lsq_cc3
regfile_power_cc3      185059489.7814 # total power usage of arch. regfile_cc3
icache_power_cc3       229328806.5485 # total power usage of icache_cc3
dcache_power_cc3       363943470.9271 # total power usage of dcache_cc3
dcache2_power_cc3      152124364.0783 # total power usage of dcache2_cc3
alu_power_cc3          936706134.4602 # total power usage of alu_cc3
resultbus_power_cc3    173825028.8732 # total power usage of resultbus_cc3
clock_power_cc3        1574660065.1361 # total power usage of clock_cc3
avg_rename_power_cc3         0.0725 # avg power usage of rename unit_cc3
avg_bpred_power_cc3          0.3336 # avg power usage of bpred unit_cc3
avg_window_power_cc3         0.6690 # avg power usage of instruction window_cc3
avg_lsq_power_cc3            0.1359 # avg power usage of instruction lsq_cc3
avg_regfile_power_cc3        0.4307 # avg power usage of arch. regfile_cc3
avg_icache_power_cc3         0.5338 # avg power usage of icache_cc3
avg_dcache_power_cc3         0.8471 # avg power usage of dcache_cc3
avg_dcache2_power_cc3        0.3541 # avg power usage of dcache2_cc3
avg_alu_power_cc3            2.1803 # avg power usage of alu_cc3
avg_resultbus_power_cc3       0.4046 # avg power usage of resultbus_cc3
avg_clock_power_cc3          3.6652 # avg power usage of clock_cc3
fetch_stage_power_cc3  372673459.3751 # total power usage of fetch stage_cc3
dispatch_stage_power_cc3 31157266.1027 # total power usage of dispatch stage_cc3
issue_stage_power_cc3  1972393560.9342 # total power usage of issue stage_cc3
avg_fetch_power_cc3          0.8674 # average power of fetch unit per cycle_cc3
avg_dispatch_power_cc3       0.0725 # average power of dispatch unit per cycle_cc3
avg_issue_power_cc3          4.5909 # average power of issue unit per cycle_cc3
total_power_cycle_cc3  4135943841.3296 # total power per cycle_cc3
avg_total_power_cycle_cc3       9.6268 # average total power per cycle_cc3
avg_total_power_insn_cc3      41.3594 # average total power per insn_cc3
total_rename_access       100000000 # total number accesses of rename unit
total_bpred_access                0 # total number accesses of bpred unit
total_window_access       385247334 # total number accesses of instruction window
total_lsq_access           32600905 # total number accesses of load/store queue
total_regfile_access      169401966 # total number accesses of arch. regfile
total_icache_access       115617741 # total number accesses of icache
total_dcache_access        32025636 # total number accesses of dcache
total_dcache2_access       13915955 # total number accesses of dcache2
total_alu_access           99999880 # total number accesses of alu
total_resultbus_access    110718602 # total number accesses of resultbus
avg_rename_access            0.2328 # avg number accesses of rename unit
avg_bpred_access             0.0000 # avg number accesses of bpred unit
avg_window_access            0.8967 # avg number accesses of instruction window
avg_lsq_access               0.0759 # avg number accesses of lsq
avg_regfile_access           0.3943 # avg number accesses of arch. regfile
avg_icache_access            0.2691 # avg number accesses of icache
avg_dcache_access            0.0745 # avg number accesses of dcache
avg_dcache2_access           0.0324 # avg number accesses of dcache2
avg_alu_access               0.2328 # avg number accesses of alu
avg_resultbus_access         0.2577 # avg number accesses of resultbus
max_rename_access                 4 # max number accesses of rename unit
max_bpred_access                  0 # max number accesses of bpred unit
max_window_access                18 # max number accesses of instruction window
max_lsq_access                    5 # max number accesses of load/store queue
max_regfile_access               12 # max number accesses of arch. regfile
max_icache_access                 4 # max number accesses of icache
max_dcache_access                 4 # max number accesses of dcache
max_dcache2_access                5 # max number accesses of dcache2
max_alu_access                    4 # max number accesses of alu
max_resultbus_access              8 # max number accesses of resultbus
max_cycle_power_cc1         46.4159 # maximum cycle power usage of cc1
max_cycle_power_cc2         32.5744 # maximum cycle power usage of cc2
max_cycle_power_cc3         36.0725 # maximum cycle power usage of cc3
sim_invalid_addrs                 0 # total non-speculative bogus addresses seen (debug var)
ld_text_base           0x0120000000 # program text (code) segment base
ld_text_size                 237568 # program text (code) size in bytes
ld_data_base           0x0140000000 # program initialized data segment base
ld_data_size                  76672 # program init'ed `.data' and uninit'ed `.bss' size in bytes
ld_stack_base          0x011ff9b000 # program stack segment base (highest address in stack)
ld_stack_size                 16384 # program initial stack size
ld_prog_entry          0x012000fb10 # program entry point (initial PC)
ld_environ_base        0x011ff96ea0 # program environment base address address
ld_target_big_endian              0 # target executable endian-ness, non-zero if big endian
mem.page_count                  498 # total number of pages allocated
mem.page_mem                  3984k # total size of memory pages allocated
mem.ptab_misses                 602 # total first level page table misses
mem.ptab_accesses         705125186 # total page table accesses
mem.ptab_miss_rate           0.0000 # first level page table miss rate

