sim-outorder: SimpleScalar/Alpha Tool Set version 3.0 of August, 2003.
Copyright (c) 1994-2003 by Todd M. Austin, Ph.D. and SimpleScalar, LLC.
All Rights Reserved. This version of SimpleScalar is licensed for academic
non-commercial use.  No portion of this work may be used by any commercial
entity, or for any commercial purpose, without the prior written permission
of SimpleScalar, LLC (info@simplescalar.com).


Processor Parameters:
Issue Width: 4
Window Size: 32
Number of Virtual Registers: 32
Number of Physical Registers: 32
Datapath Width: 64
Total Power Consumption: 77.1436
Branch Predictor Power Consumption: 3.33649  (4.44%)
 branch target buffer power (W): 2.49493
 local predict power (W): 0.574771
 global predict power (W): 0.0996078
 chooser power (W): 0.0702439
 RAS power (W): 0.0969383
Rename Logic Power Consumption: 0.484305  (0.645%)
 Instruction Decode Power (W): 0.0159915
 RAT decode_power (W): 0.113514
 RAT wordline_power (W): 0.0354288
 RAT bitline_power (W): 0.308463
 DCL Comparators (W): 0.0109075
Instruction Window Power Consumption: 3.88117  (5.17%)
 tagdrive (W): 0.19858
 tagmatch (W): 0.0805895
 Selection Logic (W): 0.0295277
 decode_power (W): 0.113514
 wordline_power (W): 0.0844643
 bitline_power (W): 3.37449
Load/Store Queue Power Consumption: 1.18197  (1.57%)
 tagdrive (W): 0.457232
 tagmatch (W): 0.100774
 decode_power (W): 0.00799577
 wordline_power (W): 0.0150119
 bitline_power (W): 0.60096
Arch. Register File Power Consumption: 3.57247  (4.75%)
 decode_power (W): 0.113514
 wordline_power (W): 0.0844643
 bitline_power (W): 3.37449
Result Bus Power Consumption: 2.75173  (3.66%)
Total Clock Power: 28.42  (37.8%)
Int ALU Power: 4.66013  (6.2%)
FP ALU Power: 14.281  (19%)
Instruction Cache Power Consumption: 2.76773  (3.68%)
 decode_power (W): 0.151353
 wordline_power (W): 0.180479
 bitline_power (W): 1.42251
 senseamp_power (W): 0.768
 tagarray_power (W): 0.245382
Itlb_power (W): 0.264834 (0.352%)
Data Cache Power Consumption: 5.53546  (7.37%)
 decode_power (W): 0.302705
 wordline_power (W): 0.360958
 bitline_power (W): 2.84503
 senseamp_power (W): 1.536
 tagarray_power (W): 0.490764
Dtlb_power (W): 0.903238 (1.2%)
Level 2 Cache Power Consumption: 3.10298 (4.13%)
 decode_power (W): 0.19487
 wordline_power (W): 0.0430878
 bitline_power (W): 1.77274
 senseamp_power (W): 0.192
 tagarray_power (W): 0.900275
sim: loading EIO file: ../benchmarks/181.mcf.spec_ref.eio.gz
sim: command line: ./sim-outorder -config ../configs/current.config ../benchmarks/181.mcf.spec_ref.eio.gz 

sim: simulation started @ Mon Nov 23 21:20:48 2015, options follow:

sim-outorder: This simulator implements a very detailed out-of-order issue
superscalar processor with a two-level memory system and speculative
execution support.  This simulator is a performance simulator, tracking the
latency of all pipeline operations.

# -config                     # load configuration from a file
# -dumpconfig                 # dump configuration to a file
# -h                    false # print help message    
# -v                    false # verbose operation     
# -d                    false # enable debug message  
# -i                    false # start in Dlite debugger
-seed                       1 # random number generator seed (0 for timer seed)
# -q                    false # initialize and terminate immediately
# -chkpt               <null> # restore EIO trace execution from <fname>
# -redir:sim     ../results/15_01_ruu/181.mcf.spec_ref.eio.gz.out # redirect simulator output to file (non-interactive only)
# -redir:prog       /dev/null # redirect simulated program output to file
-nice                       0 # simulator scheduling priority
-freq            600000000.0000 # frequency             
-max:inst           100000000 # maximum number of inst's to execute
-fastfwd                    0 # number of insts skipped before timing starts
# -ptrace              <null> # generate pipetrace, i.e., <fname|stdout|stderr> <range>
-fetch:ifqsize              4 # instruction fetch queue size (in insts)
-fetch:mplat               15 # extra branch mis-prediction latency
-fetch:speed                1 # speed of front-end of machine relative to execution core
-bpred                perfect # branch predictor type {nottaken|taken|perfect|bimod|2lev|comb}
-bpred:bimod     2048 # bimodal predictor config (<table size>)
-bpred:2lev      1 16384 4 0 # 2-level predictor config (<l1size> <l2size> <hist_size> <xor>)
-bpred:comb      1024 # combining predictor config (<meta_table_size>)
-bpred:ras                  8 # return address stack size (0 for no return stack)
-bpred:btb       512 4 # BTB config (<num_sets> <associativity>)
# -bpred:spec_update       <null> # speculative predictors update in {ID|WB} (default non-spec)
-decode:width               4 # instruction decode B/W (insts/cycle)
-issue:width                4 # instruction issue B/W (insts/cycle)
-issue:inorder          false # run pipeline with in-order issue
-issue:wrongpath         true # issue instructions down wrong execution paths
-commit:width               4 # instruction commit B/W (insts/cycle)
-ruu:size                  32 # register update unit (RUU) size
-lsq:size                   8 # load/store queue (LSQ) size
-cache:dl1       dl1:32:64:8:f # l1 data cache config, i.e., {<config>|none}
-cache:dl1lat               1 # l1 data cache hit latency (in cycles)
-cache:dl2       dl2:256:64:8:f # l2 data cache config, i.e., {<config>|none}
-cache:dl2lat               2 # l2 data cache hit latency (in cycles)
-cache:il1       il1:32:64:8:f # l1 inst cache config, i.e., {<config>|dl1|dl2|none}
-cache:il1lat               1 # l1 instruction cache hit latency (in cycles)
-cache:il2                dl2 # l2 instruction cache config, i.e., {<config>|dl2|none}
-cache:il2lat               2 # l2 instruction cache hit latency (in cycles)
-cache:flush            false # flush caches on system calls
-cache:icompress        false # convert 64-bit inst addresses to 32-bit inst equivalents
-mem:lat         103 1 # memory access latency (<first_chunk> <inter_chunk>)
-mem:width                  8 # memory access bus width (in bytes)
-tlb:itlb        itlb:16:4096:4:l # instruction TLB config, i.e., {<config>|none}
-tlb:dtlb        dtlb:32:4096:4:l # data TLB config, i.e., {<config>|none}
-tlb:lat                   30 # inst/data TLB miss latency (in cycles)
-res:ialu                   4 # total number of integer ALU's available
-res:imult                  1 # total number of integer multiplier/dividers available
-res:memport                2 # total number of memory system ports available (to CPU)
-res:fpalu                  4 # total number of floating point ALU's available
-res:fpmult                 1 # total number of floating point multiplier/dividers available
# -pcstat              <null> # profile stat(s) against text addr's (mult uses ok)
-bugcompat              false # operate in backward-compatible bugs mode (for testing only)

  Pipetrace range arguments are formatted as follows:

    {{@|#}<start>}:{{@|#|+}<end>}

  Both ends of the range are optional, if neither are specified, the entire
  execution is traced.  Ranges that start with a `@' designate an address
  range to be traced, those that start with an `#' designate a cycle count
  range.  All other range values represent an instruction count range.  The
  second argument, if specified with a `+', indicates a value relative
  to the first argument, e.g., 1000:+100 == 1000:1100.  Program symbols may
  be used in all contexts.

    Examples:   -ptrace FOO.trc #0:#1000
                -ptrace BAR.trc @2000:
                -ptrace BLAH.trc :1500
                -ptrace UXXE.trc :
                -ptrace FOOBAR.trc @main:+278

  Branch predictor configuration examples for 2-level predictor:
    Configurations:   N, M, W, X
      N   # entries in first level (# of shift register(s))
      W   width of shift register(s)
      M   # entries in 2nd level (# of counters, or other FSM)
      X   (yes-1/no-0) xor history and address for 2nd level index
    Sample predictors:
      GAg     : 1, W, 2^W, 0
      GAp     : 1, W, M (M > 2^W), 0
      PAg     : N, W, 2^W, 0
      PAp     : N, W, M (M == 2^(N+W)), 0
      gshare  : 1, W, 2^W, 1
  Predictor `comb' combines a bimodal and a 2-level predictor.

  The cache config parameter <config> has the following format:

    <name>:<nsets>:<bsize>:<assoc>:<repl>

    <name>   - name of the cache being defined
    <nsets>  - number of sets in the cache
    <bsize>  - block size of the cache
    <assoc>  - associativity of the cache
    <repl>   - block replacement strategy, 'l'-LRU, 'f'-FIFO, 'r'-random

    Examples:   -cache:dl1 dl1:4096:32:1:l
                -dtlb dtlb:128:4096:32:r

  Cache levels can be unified by pointing a level of the instruction cache
  hierarchy at the data cache hiearchy using the "dl1" and "dl2" cache
  configuration arguments.  Most sensible combinations are supported, e.g.,

    A unified l2 cache (il2 is pointed at dl2):
      -cache:il1 il1:128:64:1:l -cache:il2 dl2
      -cache:dl1 dl1:256:32:1:l -cache:dl2 ul2:1024:64:2:l

    Or, a fully unified cache hierarchy (il1 pointed at dl1):
      -cache:il1 dl1
      -cache:dl1 ul1:256:32:1:l -cache:dl2 ul2:1024:64:2:l



sim: ** starting performance simulation **

sim: ** simulation statistics **
sim_num_insn              100000002 # total number of instructions committed
sim_num_refs               46842322 # total number of loads and stores committed
sim_num_loads              39933138 # total number of loads committed
sim_num_stores         6909184.0000 # total number of stores committed
sim_num_branches           23131426 # total number of branches committed
sim_elapsed_time                278 # total simulation time in seconds
sim_inst_rate           359712.2374 # simulation speed (in insts/sec)
sim_total_insn            100000002 # total number of instructions executed
sim_total_refs             46842322 # total number of loads and stores executed
sim_total_loads            39933138 # total number of loads executed
sim_total_stores       6909184.0000 # total number of stores executed
sim_total_branches         23131426 # total number of branches executed
sim_cycle                 574102537 # total simulation time in cycles
sim_IPC                      0.1742 # instructions per cycle
sim_CPI                      5.7410 # cycles per instruction
sim_exec_BW                  0.1742 # total instructions (mis-spec + committed) per cycle
sim_IPB                      4.3231 # instruction per branch
IFQ_count                2296390549 # cumulative IFQ occupancy
IFQ_fcount                574097470 # cumulative IFQ full count
ifq_occupancy                4.0000 # avg IFQ occupancy (insn's)
ifq_rate                     0.1742 # avg IFQ dispatch rate (insn/cycle)
ifq_latency                 22.9639 # avg IFQ occupant latency (cycle's)
ifq_full                     1.0000 # fraction of time (cycle's) IFQ was full
RUU_count                8841603303 # cumulative RUU occupancy
RUU_fcount                  1720377 # cumulative RUU full count
ruu_occupancy               15.4007 # avg RUU occupancy (insn's)
ruu_rate                     0.1742 # avg RUU dispatch rate (insn/cycle)
ruu_latency                 88.4160 # avg RUU occupant latency (cycle's)
ruu_full                     0.0030 # fraction of time (cycle's) RUU was full
LSQ_count                4552932306 # cumulative LSQ occupancy
LSQ_fcount                554387643 # cumulative LSQ full count
lsq_occupancy                7.9305 # avg LSQ occupancy (insn's)
lsq_rate                     0.1742 # avg LSQ dispatch rate (insn/cycle)
lsq_latency                 45.5293 # avg LSQ occupant latency (cycle's)
lsq_full                     0.9657 # fraction of time (cycle's) LSQ was full
sim_slip                13541377886 # total number of slip cycles
avg_sim_slip               135.4138 # the average slip between issue and retirement
il1.accesses              119410156 # total number of accesses
il1.hits                  119410110 # total number of hits
il1.misses                       46 # total number of misses
il1.replacements                  0 # total number of replacements
il1.writebacks                    0 # total number of writebacks
il1.invalidations                 0 # total number of invalidations
il1.miss_rate                0.0000 # miss rate (i.e., misses/ref)
il1.repl_rate                0.0000 # replacement rate (i.e., repls/ref)
il1.wb_rate                  0.0000 # writeback rate (i.e., wrbks/ref)
il1.inv_rate                 0.0000 # invalidation rate (i.e., invs/ref)
dl1.accesses               46534570 # total number of accesses
dl1.hits                   34181333 # total number of hits
dl1.misses                 12353237 # total number of misses
dl1.replacements           12352981 # total number of replacements
dl1.writebacks              5234658 # total number of writebacks
dl1.invalidations                 0 # total number of invalidations
dl1.miss_rate                0.2655 # miss rate (i.e., misses/ref)
dl1.repl_rate                0.2655 # replacement rate (i.e., repls/ref)
dl1.wb_rate                  0.1125 # writeback rate (i.e., wrbks/ref)
dl1.inv_rate                 0.0000 # invalidation rate (i.e., invs/ref)
dl2.accesses               17587941 # total number of accesses
dl2.hits                    6190072 # total number of hits
dl2.misses                 11397869 # total number of misses
dl2.replacements           11395821 # total number of replacements
dl2.writebacks              5024571 # total number of writebacks
dl2.invalidations                 0 # total number of invalidations
dl2.miss_rate                0.6481 # miss rate (i.e., misses/ref)
dl2.repl_rate                0.6479 # replacement rate (i.e., repls/ref)
dl2.wb_rate                  0.2857 # writeback rate (i.e., wrbks/ref)
dl2.inv_rate                 0.0000 # invalidation rate (i.e., invs/ref)
itlb.accesses             119410156 # total number of accesses
itlb.hits                 119410153 # total number of hits
itlb.misses                       3 # total number of misses
itlb.replacements                 0 # total number of replacements
itlb.writebacks                   0 # total number of writebacks
itlb.invalidations                0 # total number of invalidations
itlb.miss_rate               0.0000 # miss rate (i.e., misses/ref)
itlb.repl_rate               0.0000 # replacement rate (i.e., repls/ref)
itlb.wb_rate                 0.0000 # writeback rate (i.e., wrbks/ref)
itlb.inv_rate                0.0000 # invalidation rate (i.e., invs/ref)
dtlb.accesses              46842320 # total number of accesses
dtlb.hits                  41754880 # total number of hits
dtlb.misses                 5087440 # total number of misses
dtlb.replacements           5087312 # total number of replacements
dtlb.writebacks                   0 # total number of writebacks
dtlb.invalidations                0 # total number of invalidations
dtlb.miss_rate               0.1086 # miss rate (i.e., misses/ref)
dtlb.repl_rate               0.1086 # replacement rate (i.e., repls/ref)
dtlb.wb_rate                 0.0000 # writeback rate (i.e., wrbks/ref)
dtlb.inv_rate                0.0000 # invalidation rate (i.e., invs/ref)
rename_power           278040983.5470 # total power usage of rename unit
bpred_power            1915486511.3316 # total power usage of bpred unit
window_power           2228189127.4026 # total power usage of instruction window
lsq_power              678574370.8361 # total power usage of load/store queue
regfile_power          2050965293.8300 # total power usage of arch. regfile
icache_power           1741002129.4609 # total power usage of icache
dcache_power           3696471595.8074 # total power usage of dcache
dcache2_power          1781426850.0242 # total power usage of dcache2
alu_power              10874176884.1272 # total power usage of alu
falu_power             8198784142.4201 # total power usage of falu
resultbus_power        1579777518.7276 # total power usage of resultbus
clock_power            16315995241.4669 # total power usage of clock
avg_rename_power             0.4843 # avg power usage of rename unit
avg_bpred_power              3.3365 # avg power usage of bpred unit
avg_window_power             3.8812 # avg power usage of instruction window
avg_lsq_power                1.1820 # avg power usage of lsq
avg_regfile_power            3.5725 # avg power usage of arch. regfile
avg_icache_power             3.0326 # avg power usage of icache
avg_dcache_power             6.4387 # avg power usage of dcache
avg_dcache2_power            3.1030 # avg power usage of dcache2
avg_alu_power               18.9412 # avg power usage of alu
avg_falu_power              14.2810 # avg power usage of falu
avg_resultbus_power          2.7517 # avg power usage of resultbus
avg_clock_power             28.4200 # avg power usage of clock
fetch_stage_power      3656488640.7925 # total power usage of fetch stage
dispatch_stage_power   278040983.5470 # total power usage of dispatch stage
issue_stage_power      20838616346.9250 # total power usage of issue stage
avg_fetch_power              6.3691 # average power of fetch unit per cycle
avg_dispatch_power           0.4843 # average power of dispatch unit per cycle
avg_issue_power             36.2977 # average power of issue unit per cycle
total_power            43140106506.5615 # total power per cycle
avg_total_power_cycle       75.1436 # average total power per cycle
avg_total_power_cycle_nofp_nod2      57.7595 # average total power per cycle
avg_total_power_insn       431.4011 # average total power per insn
avg_total_power_insn_nofp_nod2     331.5989 # average total power per insn
rename_power_cc1       18998064.8086 # total power usage of rename unit_cc1
bpred_power_cc1              0.0000 # total power usage of bpred unit_cc1
window_power_cc1       226506369.6625 # total power usage of instruction window_cc1
lsq_power_cc1          18801250.8790 # total power usage of lsq_cc1
regfile_power_cc1      125563664.0494 # total power usage of arch. regfile_cc1
icache_power_cc1       118959809.6750 # total power usage of icache_cc1
dcache_power_cc1       219026785.3986 # total power usage of dcache_cc1
dcache2_power_cc1      35416500.2903 # total power usage of dcache2_cc1
alu_power_cc1          217475258.3947 # total power usage of alu_cc1
resultbus_power_cc1    147330137.6067 # total power usage of resultbus_cc1
clock_power_cc1        710998633.0741 # total power usage of clock_cc1
avg_rename_power_cc1         0.0331 # avg power usage of rename unit_cc1
avg_bpred_power_cc1          0.0000 # avg power usage of bpred unit_cc1
avg_window_power_cc1         0.3945 # avg power usage of instruction window_cc1
avg_lsq_power_cc1            0.0327 # avg power usage of lsq_cc1
avg_regfile_power_cc1        0.2187 # avg power usage of arch. regfile_cc1
avg_icache_power_cc1         0.2072 # avg power usage of icache_cc1
avg_dcache_power_cc1         0.3815 # avg power usage of dcache_cc1
avg_dcache2_power_cc1        0.0617 # avg power usage of dcache2_cc1
avg_alu_power_cc1            0.3788 # avg power usage of alu_cc1
avg_resultbus_power_cc1       0.2566 # avg power usage of resultbus_cc1
avg_clock_power_cc1          1.2385 # avg power usage of clock_cc1
fetch_stage_power_cc1  118959809.6750 # total power usage of fetch stage_cc1
dispatch_stage_power_cc1 18998064.8086 # total power usage of dispatch stage_cc1
issue_stage_power_cc1  864556302.2318 # total power usage of issue stage_cc1
avg_fetch_power_cc1          0.2072 # average power of fetch unit per cycle_cc1
avg_dispatch_power_cc1       0.0331 # average power of dispatch unit per cycle_cc1
avg_issue_power_cc1          1.5059 # average power of issue unit per cycle_cc1
total_power_cycle_cc1  1839076473.8389 # total power per cycle_cc1
avg_total_power_cycle_cc1       3.2034 # average total power per cycle_cc1
avg_total_power_insn_cc1      18.3908 # average total power per insn_cc1
rename_power_cc2       12107636.4223 # total power usage of rename unit_cc2
bpred_power_cc2              0.0000 # total power usage of bpred unit_cc2
window_power_cc2       146260470.5522 # total power usage of instruction window_cc2
lsq_power_cc2          12671056.2659 # total power usage of lsq_cc2
regfile_power_cc2      31861200.4625 # total power usage of arch. regfile_cc2
icache_power_cc2       118959809.6750 # total power usage of icache_cc2
dcache_power_cc2       149810969.8756 # total power usage of dcache_cc2
dcache2_power_cc2      27287486.1966 # total power usage of dcache2_cc2
alu_power_cc2          116503256.6544 # total power usage of alu_cc2
resultbus_power_cc2    75329821.9710 # total power usage of resultbus_cc2
clock_power_cc2        431985974.7411 # total power usage of clock_cc2
avg_rename_power_cc2         0.0211 # avg power usage of rename unit_cc2
avg_bpred_power_cc2          0.0000 # avg power usage of bpred unit_cc2
avg_window_power_cc2         0.2548 # avg power usage of instruction window_cc2
avg_lsq_power_cc2            0.0221 # avg power usage of instruction lsq_cc2
avg_regfile_power_cc2        0.0555 # avg power usage of arch. regfile_cc2
avg_icache_power_cc2         0.2072 # avg power usage of icache_cc2
avg_dcache_power_cc2         0.2609 # avg power usage of dcache_cc2
avg_dcache2_power_cc2        0.0475 # avg power usage of dcache2_cc2
avg_alu_power_cc2            0.2029 # avg power usage of alu_cc2
avg_resultbus_power_cc2       0.1312 # avg power usage of resultbus_cc2
avg_clock_power_cc2          0.7525 # avg power usage of clock_cc2
fetch_stage_power_cc2  118959809.6750 # total power usage of fetch stage_cc2
dispatch_stage_power_cc2 12107636.4223 # total power usage of dispatch stage_cc2
issue_stage_power_cc2  527863061.5156 # total power usage of issue stage_cc2
avg_fetch_power_cc2          0.2072 # average power of fetch unit per cycle_cc2
avg_dispatch_power_cc2       0.0211 # average power of dispatch unit per cycle_cc2
avg_issue_power_cc2          0.9195 # average power of issue unit per cycle_cc2
total_power_cycle_cc2  1122777682.8164 # total power per cycle_cc2
avg_total_power_cycle_cc2       1.9557 # average total power per cycle_cc2
avg_total_power_insn_cc2      11.2278 # average total power per insn_cc2
rename_power_cc3       38011928.4152 # total power usage of rename unit_cc3
bpred_power_cc3        191548652.6837 # total power usage of bpred unit_cc3
window_power_cc3       344219092.6145 # total power usage of instruction window_cc3
lsq_power_cc3          78516272.4874 # total power usage of lsq_cc3
regfile_power_cc3      222796938.9291 # total power usage of arch. regfile_cc3
icache_power_cc3       281164042.6975 # total power usage of icache_cc3
dcache_power_cc3       497947294.6106 # total power usage of dcache_cc3
dcache2_power_cc3      202183588.9277 # total power usage of dcache2_cc3
alu_power_cc3          1182173431.2848 # total power usage of alu_cc3
resultbus_power_cc3    217625306.2218 # total power usage of resultbus_cc3
clock_power_cc3        1989549667.7109 # total power usage of clock_cc3
avg_rename_power_cc3         0.0662 # avg power usage of rename unit_cc3
avg_bpred_power_cc3          0.3336 # avg power usage of bpred unit_cc3
avg_window_power_cc3         0.5996 # avg power usage of instruction window_cc3
avg_lsq_power_cc3            0.1368 # avg power usage of instruction lsq_cc3
avg_regfile_power_cc3        0.3881 # avg power usage of arch. regfile_cc3
avg_icache_power_cc3         0.4897 # avg power usage of icache_cc3
avg_dcache_power_cc3         0.8673 # avg power usage of dcache_cc3
avg_dcache2_power_cc3        0.3522 # avg power usage of dcache2_cc3
avg_alu_power_cc3            2.0592 # avg power usage of alu_cc3
avg_resultbus_power_cc3       0.3791 # avg power usage of resultbus_cc3
avg_clock_power_cc3          3.4655 # avg power usage of clock_cc3
fetch_stage_power_cc3  472712695.3812 # total power usage of fetch stage_cc3
dispatch_stage_power_cc3 38011928.4152 # total power usage of dispatch stage_cc3
issue_stage_power_cc3  2522664986.1467 # total power usage of issue stage_cc3
avg_fetch_power_cc3          0.8234 # average power of fetch unit per cycle_cc3
avg_dispatch_power_cc3       0.0662 # average power of dispatch unit per cycle_cc3
avg_issue_power_cc3          4.3941 # average power of issue unit per cycle_cc3
total_power_cycle_cc3  5245736216.5831 # total power per cycle_cc3
avg_total_power_cycle_cc3       9.1373 # average total power per cycle_cc3
avg_total_power_insn_cc3      52.4574 # average total power per insn_cc3
total_rename_access       100000002 # total number accesses of rename unit
total_bpred_access                0 # total number accesses of bpred unit
total_window_access       390423238 # total number accesses of instruction window
total_lsq_access           47150070 # total number accesses of load/store queue
total_regfile_access      120632353 # total number accesses of arch. regfile
total_icache_access       119410156 # total number accesses of icache
total_dcache_access        46534570 # total number accesses of dcache
total_dcache2_access       17587941 # total number accesses of dcache2
total_alu_access           99999996 # total number accesses of alu
total_resultbus_access    116801707 # total number accesses of resultbus
avg_rename_access            0.1742 # avg number accesses of rename unit
avg_bpred_access             0.0000 # avg number accesses of bpred unit
avg_window_access            0.6801 # avg number accesses of instruction window
avg_lsq_access               0.0821 # avg number accesses of lsq
avg_regfile_access           0.2101 # avg number accesses of arch. regfile
avg_icache_access            0.2080 # avg number accesses of icache
avg_dcache_access            0.0811 # avg number accesses of dcache
avg_dcache2_access           0.0306 # avg number accesses of dcache2
avg_alu_access               0.1742 # avg number accesses of alu
avg_resultbus_access         0.2035 # avg number accesses of resultbus
max_rename_access                 4 # max number accesses of rename unit
max_bpred_access                  0 # max number accesses of bpred unit
max_window_access                16 # max number accesses of instruction window
max_lsq_access                    4 # max number accesses of load/store queue
max_regfile_access               11 # max number accesses of arch. regfile
max_icache_access                 4 # max number accesses of icache
max_dcache_access                 4 # max number accesses of dcache
max_dcache2_access                7 # max number accesses of dcache2
max_alu_access                    4 # max number accesses of alu
max_resultbus_access              8 # max number accesses of resultbus
max_cycle_power_cc1         34.4836 # maximum cycle power usage of cc1
max_cycle_power_cc2         30.7790 # maximum cycle power usage of cc2
max_cycle_power_cc3         35.2960 # maximum cycle power usage of cc3
sim_invalid_addrs                 0 # total non-speculative bogus addresses seen (debug var)
ld_text_base           0x0120000000 # program text (code) segment base
ld_text_size                 163840 # program text (code) size in bytes
ld_data_base           0x0140000000 # program initialized data segment base
ld_data_size                  80448 # program init'ed `.data' and uninit'ed `.bss' size in bytes
ld_stack_base          0x011ff9b000 # program stack segment base (highest address in stack)
ld_stack_size                 16384 # program initial stack size
ld_prog_entry          0x0120007edc # program entry point (initial PC)
ld_environ_base        0x011ff96f00 # program environment base address address
ld_target_big_endian              0 # target executable endian-ness, non-zero if big endian
mem.page_count                24329 # total number of pages allocated
mem.page_mem                194632k # total size of memory pages allocated
mem.ptab_misses             6563934 # total first level page table misses
mem.ptab_accesses        1366623008 # total page table accesses
mem.ptab_miss_rate           0.0048 # first level page table miss rate

