sim-outorder: SimpleScalar/Alpha Tool Set version 3.0 of August, 2003.
Copyright (c) 1994-2003 by Todd M. Austin, Ph.D. and SimpleScalar, LLC.
All Rights Reserved. This version of SimpleScalar is licensed for academic
non-commercial use.  No portion of this work may be used by any commercial
entity, or for any commercial purpose, without the prior written permission
of SimpleScalar, LLC (info@simplescalar.com).


Processor Parameters:
Issue Width: 4
Window Size: 32
Number of Virtual Registers: 32
Number of Physical Registers: 32
Datapath Width: 64
Total Power Consumption: 77.1436
Branch Predictor Power Consumption: 3.33649  (4.44%)
 branch target buffer power (W): 2.49493
 local predict power (W): 0.574771
 global predict power (W): 0.0996078
 chooser power (W): 0.0702439
 RAS power (W): 0.0969383
Rename Logic Power Consumption: 0.484305  (0.645%)
 Instruction Decode Power (W): 0.0159915
 RAT decode_power (W): 0.113514
 RAT wordline_power (W): 0.0354288
 RAT bitline_power (W): 0.308463
 DCL Comparators (W): 0.0109075
Instruction Window Power Consumption: 3.88117  (5.17%)
 tagdrive (W): 0.19858
 tagmatch (W): 0.0805895
 Selection Logic (W): 0.0295277
 decode_power (W): 0.113514
 wordline_power (W): 0.0844643
 bitline_power (W): 3.37449
Load/Store Queue Power Consumption: 1.18197  (1.57%)
 tagdrive (W): 0.457232
 tagmatch (W): 0.100774
 decode_power (W): 0.00799577
 wordline_power (W): 0.0150119
 bitline_power (W): 0.60096
Arch. Register File Power Consumption: 3.57247  (4.75%)
 decode_power (W): 0.113514
 wordline_power (W): 0.0844643
 bitline_power (W): 3.37449
Result Bus Power Consumption: 2.75173  (3.66%)
Total Clock Power: 28.42  (37.8%)
Int ALU Power: 4.66013  (6.2%)
FP ALU Power: 14.281  (19%)
Instruction Cache Power Consumption: 2.76773  (3.68%)
 decode_power (W): 0.151353
 wordline_power (W): 0.180479
 bitline_power (W): 1.42251
 senseamp_power (W): 0.768
 tagarray_power (W): 0.245382
Itlb_power (W): 0.264834 (0.352%)
Data Cache Power Consumption: 5.53546  (7.37%)
 decode_power (W): 0.302705
 wordline_power (W): 0.360958
 bitline_power (W): 2.84503
 senseamp_power (W): 1.536
 tagarray_power (W): 0.490764
Dtlb_power (W): 0.903238 (1.2%)
Level 2 Cache Power Consumption: 3.10298 (4.13%)
 decode_power (W): 0.19487
 wordline_power (W): 0.0430878
 bitline_power (W): 1.77274
 senseamp_power (W): 0.192
 tagarray_power (W): 0.900275
sim: loading EIO file: ../benchmarks/252.eon.rushmeier-ref.eio.gz
sim: command line: ./sim-outorder -config ../configs/current.config ../benchmarks/252.eon.rushmeier-ref.eio.gz 

sim: simulation started @ Mon Nov 23 21:20:36 2015, options follow:

sim-outorder: This simulator implements a very detailed out-of-order issue
superscalar processor with a two-level memory system and speculative
execution support.  This simulator is a performance simulator, tracking the
latency of all pipeline operations.

# -config                     # load configuration from a file
# -dumpconfig                 # dump configuration to a file
# -h                    false # print help message    
# -v                    false # verbose operation     
# -d                    false # enable debug message  
# -i                    false # start in Dlite debugger
-seed                       1 # random number generator seed (0 for timer seed)
# -q                    false # initialize and terminate immediately
# -chkpt               <null> # restore EIO trace execution from <fname>
# -redir:sim     ../results/15_01_ruu/252.eon.rushmeier-ref.eio.gz.out # redirect simulator output to file (non-interactive only)
# -redir:prog       /dev/null # redirect simulated program output to file
-nice                       0 # simulator scheduling priority
-freq            600000000.0000 # frequency             
-max:inst           100000000 # maximum number of inst's to execute
-fastfwd                    0 # number of insts skipped before timing starts
# -ptrace              <null> # generate pipetrace, i.e., <fname|stdout|stderr> <range>
-fetch:ifqsize              4 # instruction fetch queue size (in insts)
-fetch:mplat               15 # extra branch mis-prediction latency
-fetch:speed                1 # speed of front-end of machine relative to execution core
-bpred                perfect # branch predictor type {nottaken|taken|perfect|bimod|2lev|comb}
-bpred:bimod     2048 # bimodal predictor config (<table size>)
-bpred:2lev      1 16384 4 0 # 2-level predictor config (<l1size> <l2size> <hist_size> <xor>)
-bpred:comb      1024 # combining predictor config (<meta_table_size>)
-bpred:ras                  8 # return address stack size (0 for no return stack)
-bpred:btb       512 4 # BTB config (<num_sets> <associativity>)
# -bpred:spec_update       <null> # speculative predictors update in {ID|WB} (default non-spec)
-decode:width               4 # instruction decode B/W (insts/cycle)
-issue:width                4 # instruction issue B/W (insts/cycle)
-issue:inorder          false # run pipeline with in-order issue
-issue:wrongpath         true # issue instructions down wrong execution paths
-commit:width               4 # instruction commit B/W (insts/cycle)
-ruu:size                  32 # register update unit (RUU) size
-lsq:size                   8 # load/store queue (LSQ) size
-cache:dl1       dl1:32:64:8:f # l1 data cache config, i.e., {<config>|none}
-cache:dl1lat               1 # l1 data cache hit latency (in cycles)
-cache:dl2       dl2:256:64:8:f # l2 data cache config, i.e., {<config>|none}
-cache:dl2lat               2 # l2 data cache hit latency (in cycles)
-cache:il1       il1:32:64:8:f # l1 inst cache config, i.e., {<config>|dl1|dl2|none}
-cache:il1lat               1 # l1 instruction cache hit latency (in cycles)
-cache:il2                dl2 # l2 instruction cache config, i.e., {<config>|dl2|none}
-cache:il2lat               2 # l2 instruction cache hit latency (in cycles)
-cache:flush            false # flush caches on system calls
-cache:icompress        false # convert 64-bit inst addresses to 32-bit inst equivalents
-mem:lat         103 1 # memory access latency (<first_chunk> <inter_chunk>)
-mem:width                  8 # memory access bus width (in bytes)
-tlb:itlb        itlb:16:4096:4:l # instruction TLB config, i.e., {<config>|none}
-tlb:dtlb        dtlb:32:4096:4:l # data TLB config, i.e., {<config>|none}
-tlb:lat                   30 # inst/data TLB miss latency (in cycles)
-res:ialu                   4 # total number of integer ALU's available
-res:imult                  1 # total number of integer multiplier/dividers available
-res:memport                2 # total number of memory system ports available (to CPU)
-res:fpalu                  4 # total number of floating point ALU's available
-res:fpmult                 1 # total number of floating point multiplier/dividers available
# -pcstat              <null> # profile stat(s) against text addr's (mult uses ok)
-bugcompat              false # operate in backward-compatible bugs mode (for testing only)

  Pipetrace range arguments are formatted as follows:

    {{@|#}<start>}:{{@|#|+}<end>}

  Both ends of the range are optional, if neither are specified, the entire
  execution is traced.  Ranges that start with a `@' designate an address
  range to be traced, those that start with an `#' designate a cycle count
  range.  All other range values represent an instruction count range.  The
  second argument, if specified with a `+', indicates a value relative
  to the first argument, e.g., 1000:+100 == 1000:1100.  Program symbols may
  be used in all contexts.

    Examples:   -ptrace FOO.trc #0:#1000
                -ptrace BAR.trc @2000:
                -ptrace BLAH.trc :1500
                -ptrace UXXE.trc :
                -ptrace FOOBAR.trc @main:+278

  Branch predictor configuration examples for 2-level predictor:
    Configurations:   N, M, W, X
      N   # entries in first level (# of shift register(s))
      W   width of shift register(s)
      M   # entries in 2nd level (# of counters, or other FSM)
      X   (yes-1/no-0) xor history and address for 2nd level index
    Sample predictors:
      GAg     : 1, W, 2^W, 0
      GAp     : 1, W, M (M > 2^W), 0
      PAg     : N, W, 2^W, 0
      PAp     : N, W, M (M == 2^(N+W)), 0
      gshare  : 1, W, 2^W, 1
  Predictor `comb' combines a bimodal and a 2-level predictor.

  The cache config parameter <config> has the following format:

    <name>:<nsets>:<bsize>:<assoc>:<repl>

    <name>   - name of the cache being defined
    <nsets>  - number of sets in the cache
    <bsize>  - block size of the cache
    <assoc>  - associativity of the cache
    <repl>   - block replacement strategy, 'l'-LRU, 'f'-FIFO, 'r'-random

    Examples:   -cache:dl1 dl1:4096:32:1:l
                -dtlb dtlb:128:4096:32:r

  Cache levels can be unified by pointing a level of the instruction cache
  hierarchy at the data cache hiearchy using the "dl1" and "dl2" cache
  configuration arguments.  Most sensible combinations are supported, e.g.,

    A unified l2 cache (il2 is pointed at dl2):
      -cache:il1 il1:128:64:1:l -cache:il2 dl2
      -cache:dl1 dl1:256:32:1:l -cache:dl2 ul2:1024:64:2:l

    Or, a fully unified cache hierarchy (il1 pointed at dl1):
      -cache:il1 dl1
      -cache:dl1 ul1:256:32:1:l -cache:dl2 ul2:1024:64:2:l



sim: ** starting performance simulation **

sim: ** simulation statistics **
sim_num_insn              100000000 # total number of instructions committed
sim_num_refs               48401868 # total number of loads and stores committed
sim_num_loads              29359945 # total number of loads committed
sim_num_stores         19041923.0000 # total number of stores committed
sim_num_branches           11497412 # total number of branches committed
sim_elapsed_time                126 # total simulation time in seconds
sim_inst_rate           793650.7937 # simulation speed (in insts/sec)
sim_total_insn            100000000 # total number of instructions executed
sim_total_refs             48401868 # total number of loads and stores executed
sim_total_loads            29359945 # total number of loads executed
sim_total_stores       19041923.0000 # total number of stores executed
sim_total_branches         11497412 # total number of branches executed
sim_cycle                  49706970 # total simulation time in cycles
sim_IPC                      2.0118 # instructions per cycle
sim_CPI                      0.4971 # cycles per instruction
sim_exec_BW                  2.0118 # total instructions (mis-spec + committed) per cycle
sim_IPB                      8.6976 # instruction per branch
IFQ_count                 191147367 # cumulative IFQ occupancy
IFQ_fcount                 47449366 # cumulative IFQ full count
ifq_occupancy                3.8455 # avg IFQ occupancy (insn's)
ifq_rate                     2.0118 # avg IFQ dispatch rate (insn/cycle)
ifq_latency                  1.9115 # avg IFQ occupant latency (cycle's)
ifq_full                     0.9546 # fraction of time (cycle's) IFQ was full
RUU_count                 765301896 # cumulative RUU occupancy
RUU_fcount                  2550034 # cumulative RUU full count
ruu_occupancy               15.3963 # avg RUU occupancy (insn's)
ruu_rate                     2.0118 # avg RUU dispatch rate (insn/cycle)
ruu_latency                  7.6530 # avg RUU occupant latency (cycle's)
ruu_full                     0.0513 # fraction of time (cycle's) RUU was full
LSQ_count                 333975850 # cumulative LSQ occupancy
LSQ_fcount                 26369975 # cumulative LSQ full count
lsq_occupancy                6.7189 # avg LSQ occupancy (insn's)
lsq_rate                     2.0118 # avg LSQ dispatch rate (insn/cycle)
lsq_latency                  3.3398 # avg LSQ occupant latency (cycle's)
lsq_full                     0.5305 # fraction of time (cycle's) LSQ was full
sim_slip                 1247679463 # total number of slip cycles
avg_sim_slip                12.4768 # the average slip between issue and retirement
il1.accesses              114310057 # total number of accesses
il1.hits                  113210175 # total number of hits
il1.misses                  1099882 # total number of misses
il1.replacements            1099626 # total number of replacements
il1.writebacks                    0 # total number of writebacks
il1.invalidations                 0 # total number of invalidations
il1.miss_rate                0.0096 # miss rate (i.e., misses/ref)
il1.repl_rate                0.0096 # replacement rate (i.e., repls/ref)
il1.wb_rate                  0.0000 # writeback rate (i.e., wrbks/ref)
il1.inv_rate                 0.0000 # invalidation rate (i.e., invs/ref)
dl1.accesses               47903856 # total number of accesses
dl1.hits                   47505369 # total number of hits
dl1.misses                   398487 # total number of misses
dl1.replacements             398231 # total number of replacements
dl1.writebacks                99113 # total number of writebacks
dl1.invalidations                 0 # total number of invalidations
dl1.miss_rate                0.0083 # miss rate (i.e., misses/ref)
dl1.repl_rate                0.0083 # replacement rate (i.e., repls/ref)
dl1.wb_rate                  0.0021 # writeback rate (i.e., wrbks/ref)
dl1.inv_rate                 0.0000 # invalidation rate (i.e., invs/ref)
dl2.accesses                1597482 # total number of accesses
dl2.hits                    1595978 # total number of hits
dl2.misses                     1504 # total number of misses
dl2.replacements                108 # total number of replacements
dl2.writebacks                   19 # total number of writebacks
dl2.invalidations                 0 # total number of invalidations
dl2.miss_rate                0.0009 # miss rate (i.e., misses/ref)
dl2.repl_rate                0.0001 # replacement rate (i.e., repls/ref)
dl2.wb_rate                  0.0000 # writeback rate (i.e., wrbks/ref)
dl2.inv_rate                 0.0000 # invalidation rate (i.e., invs/ref)
itlb.accesses             114310057 # total number of accesses
itlb.hits                 114310002 # total number of hits
itlb.misses                      55 # total number of misses
itlb.replacements                 8 # total number of replacements
itlb.writebacks                   0 # total number of writebacks
itlb.invalidations                0 # total number of invalidations
itlb.miss_rate               0.0000 # miss rate (i.e., misses/ref)
itlb.repl_rate               0.0000 # replacement rate (i.e., repls/ref)
itlb.wb_rate                 0.0000 # writeback rate (i.e., wrbks/ref)
itlb.inv_rate                0.0000 # invalidation rate (i.e., invs/ref)
dtlb.accesses              48401861 # total number of accesses
dtlb.hits                  48401803 # total number of hits
dtlb.misses                      58 # total number of misses
dtlb.replacements                 0 # total number of replacements
dtlb.writebacks                   0 # total number of writebacks
dtlb.invalidations                0 # total number of invalidations
dtlb.miss_rate               0.0000 # miss rate (i.e., misses/ref)
dtlb.repl_rate               0.0000 # replacement rate (i.e., repls/ref)
dtlb.wb_rate                 0.0000 # writeback rate (i.e., wrbks/ref)
dtlb.inv_rate                0.0000 # invalidation rate (i.e., invs/ref)
rename_power           24073356.3515 # total power usage of rename unit
bpred_power            165846734.5629 # total power usage of bpred unit
window_power           192921163.4345 # total power usage of instruction window
lsq_power              58752354.4729 # total power usage of load/store queue
regfile_power          177576763.7241 # total power usage of arch. regfile
icache_power           150739520.9095 # total power usage of icache
dcache_power           320048058.3186 # total power usage of dcache
dcache2_power          154239573.2156 # total power usage of dcache2
alu_power              941508438.7064 # total power usage of alu
falu_power             709867473.2569 # total power usage of falu
resultbus_power        136780364.6042 # total power usage of resultbus
clock_power            1412672187.1136 # total power usage of clock
avg_rename_power             0.4843 # avg power usage of rename unit
avg_bpred_power              3.3365 # avg power usage of bpred unit
avg_window_power             3.8812 # avg power usage of instruction window
avg_lsq_power                1.1820 # avg power usage of lsq
avg_regfile_power            3.5725 # avg power usage of arch. regfile
avg_icache_power             3.0326 # avg power usage of icache
avg_dcache_power             6.4387 # avg power usage of dcache
avg_dcache2_power            3.1030 # avg power usage of dcache2
avg_alu_power               18.9412 # avg power usage of alu
avg_falu_power              14.2810 # avg power usage of falu
avg_resultbus_power          2.7517 # avg power usage of resultbus
avg_clock_power             28.4200 # avg power usage of clock
fetch_stage_power      316586255.4724 # total power usage of fetch stage
dispatch_stage_power   24073356.3515 # total power usage of dispatch stage
issue_stage_power      1804249952.7522 # total power usage of issue stage
avg_fetch_power              6.3691 # average power of fetch unit per cycle
avg_dispatch_power           0.4843 # average power of dispatch unit per cycle
avg_issue_power             36.2977 # average power of issue unit per cycle
total_power            3735158515.4139 # total power per cycle
avg_total_power_cycle       75.1436 # average total power per cycle
avg_total_power_cycle_nofp_nod2      57.7595 # average total power per cycle
avg_total_power_insn        37.3516 # average total power per insn
avg_total_power_insn_nofp_nod2      28.7105 # average total power per insn
rename_power_cc1       16926352.8430 # total power usage of rename unit_cc1
bpred_power_cc1              0.0000 # total power usage of bpred unit_cc1
window_power_cc1       174855655.4813 # total power usage of instruction window_cc1
lsq_power_cc1          18500767.1719 # total power usage of lsq_cc1
regfile_power_cc1      122071346.8651 # total power usage of arch. regfile_cc1
icache_power_cc1       107890260.0471 # total power usage of icache_cc1
dcache_power_cc1       196377848.7998 # total power usage of dcache_cc1
dcache2_power_cc1      4587687.5465 # total power usage of dcache2_cc1
alu_power_cc1          335623870.7081 # total power usage of alu_cc1
resultbus_power_cc1    112508815.9271 # total power usage of resultbus_cc1
clock_power_cc1        701690209.4575 # total power usage of clock_cc1
avg_rename_power_cc1         0.3405 # avg power usage of rename unit_cc1
avg_bpred_power_cc1          0.0000 # avg power usage of bpred unit_cc1
avg_window_power_cc1         3.5177 # avg power usage of instruction window_cc1
avg_lsq_power_cc1            0.3722 # avg power usage of lsq_cc1
avg_regfile_power_cc1        2.4558 # avg power usage of arch. regfile_cc1
avg_icache_power_cc1         2.1705 # avg power usage of icache_cc1
avg_dcache_power_cc1         3.9507 # avg power usage of dcache_cc1
avg_dcache2_power_cc1        0.0923 # avg power usage of dcache2_cc1
avg_alu_power_cc1            6.7520 # avg power usage of alu_cc1
avg_resultbus_power_cc1       2.2634 # avg power usage of resultbus_cc1
avg_clock_power_cc1         14.1165 # avg power usage of clock_cc1
fetch_stage_power_cc1  107890260.0471 # total power usage of fetch stage_cc1
dispatch_stage_power_cc1 16926352.8430 # total power usage of dispatch stage_cc1
issue_stage_power_cc1  842454645.6347 # total power usage of issue stage_cc1
avg_fetch_power_cc1          2.1705 # average power of fetch unit per cycle_cc1
avg_dispatch_power_cc1       0.3405 # average power of dispatch unit per cycle_cc1
avg_issue_power_cc1         16.9484 # average power of issue unit per cycle_cc1
total_power_cycle_cc1  1791032814.8475 # total power per cycle_cc1
avg_total_power_cycle_cc1      36.0318 # average total power per cycle_cc1
avg_total_power_insn_cc1      17.9103 # average total power per insn_cc1
rename_power_cc2       12107636.1786 # total power usage of rename unit_cc2
bpred_power_cc2              0.0000 # total power usage of bpred unit_cc2
window_power_cc2       145062328.9560 # total power usage of instruction window_cc2
lsq_power_cc2          13149809.0199 # total power usage of lsq_cc2
regfile_power_cc2      40896365.3198 # total power usage of arch. regfile_cc2
icache_power_cc2       107890260.0471 # total power usage of icache_cc2
dcache_power_cc2       154219177.8574 # total power usage of dcache_cc2
dcache2_power_cc2      2478474.7699 # total power usage of dcache2_cc2
alu_power_cc2          147625645.6422 # total power usage of alu_cc2
resultbus_power_cc2    76013983.4948 # total power usage of resultbus_cc2
clock_power_cc2        450647726.7227 # total power usage of clock_cc2
avg_rename_power_cc2         0.2436 # avg power usage of rename unit_cc2
avg_bpred_power_cc2          0.0000 # avg power usage of bpred unit_cc2
avg_window_power_cc2         2.9183 # avg power usage of instruction window_cc2
avg_lsq_power_cc2            0.2645 # avg power usage of instruction lsq_cc2
avg_regfile_power_cc2        0.8227 # avg power usage of arch. regfile_cc2
avg_icache_power_cc2         2.1705 # avg power usage of icache_cc2
avg_dcache_power_cc2         3.1026 # avg power usage of dcache_cc2
avg_dcache2_power_cc2        0.0499 # avg power usage of dcache2_cc2
avg_alu_power_cc2            2.9699 # avg power usage of alu_cc2
avg_resultbus_power_cc2       1.5292 # avg power usage of resultbus_cc2
avg_clock_power_cc2          9.0661 # avg power usage of clock_cc2
fetch_stage_power_cc2  107890260.0471 # total power usage of fetch stage_cc2
dispatch_stage_power_cc2 12107636.1786 # total power usage of dispatch stage_cc2
issue_stage_power_cc2  538549419.7402 # total power usage of issue stage_cc2
avg_fetch_power_cc2          2.1705 # average power of fetch unit per cycle_cc2
avg_dispatch_power_cc2       0.2436 # average power of dispatch unit per cycle_cc2
avg_issue_power_cc2         10.8345 # average power of issue unit per cycle_cc2
total_power_cycle_cc2  1150091408.0083 # total power per cycle_cc2
avg_total_power_cycle_cc2      23.1374 # average total power per cycle_cc2
avg_total_power_insn_cc2      11.5009 # average total power per insn_cc2
rename_power_cc3       12822336.5282 # total power usage of rename unit_cc3
bpred_power_cc3        16584673.4532 # total power usage of bpred unit_cc3
window_power_cc3       146068649.2992 # total power usage of instruction window_cc3
lsq_power_cc3          17060152.5788 # total power usage of lsq_cc3
regfile_power_cc3      44514446.8227 # total power usage of arch. regfile_cc3
icache_power_cc3       112175186.1096 # total power usage of icache_cc3
dcache_power_cc3       167717186.9565 # total power usage of dcache_cc3
dcache2_power_cc3      17444737.7538 # total power usage of dcache2_cc3
alu_power_cc3          208214102.1860 # total power usage of alu_cc3
resultbus_power_cc3    77806614.9844 # total power usage of resultbus_cc3
clock_power_cc3        520200803.7782 # total power usage of clock_cc3
avg_rename_power_cc3         0.2580 # avg power usage of rename unit_cc3
avg_bpred_power_cc3          0.3336 # avg power usage of bpred unit_cc3
avg_window_power_cc3         2.9386 # avg power usage of instruction window_cc3
avg_lsq_power_cc3            0.3432 # avg power usage of instruction lsq_cc3
avg_regfile_power_cc3        0.8955 # avg power usage of arch. regfile_cc3
avg_icache_power_cc3         2.2567 # avg power usage of icache_cc3
avg_dcache_power_cc3         3.3741 # avg power usage of dcache_cc3
avg_dcache2_power_cc3        0.3510 # avg power usage of dcache2_cc3
avg_alu_power_cc3            4.1888 # avg power usage of alu_cc3
avg_resultbus_power_cc3       1.5653 # avg power usage of resultbus_cc3
avg_clock_power_cc3         10.4653 # avg power usage of clock_cc3
fetch_stage_power_cc3  128759859.5628 # total power usage of fetch stage_cc3
dispatch_stage_power_cc3 12822336.5282 # total power usage of dispatch stage_cc3
issue_stage_power_cc3  634311443.7588 # total power usage of issue stage_cc3
avg_fetch_power_cc3          2.5904 # average power of fetch unit per cycle_cc3
avg_dispatch_power_cc3       0.2580 # average power of dispatch unit per cycle_cc3
avg_issue_power_cc3         12.7610 # average power of issue unit per cycle_cc3
total_power_cycle_cc3  1340608890.4506 # total power per cycle_cc3
avg_total_power_cycle_cc3      26.9702 # average total power per cycle_cc3
avg_total_power_insn_cc3      13.4061 # average total power per insn_cc3
total_rename_access       100000000 # total number accesses of rename unit
total_bpred_access                0 # total number accesses of bpred unit
total_window_access       402006556 # total number accesses of instruction window
total_lsq_access           48899869 # total number accesses of load/store queue
total_regfile_access      161071284 # total number accesses of arch. regfile
total_icache_access       114310057 # total number accesses of icache
total_dcache_access        47903856 # total number accesses of dcache
total_dcache2_access        1597482 # total number accesses of dcache2
total_alu_access           99920174 # total number accesses of alu
total_resultbus_access    117862525 # total number accesses of resultbus
avg_rename_access            2.0118 # avg number accesses of rename unit
avg_bpred_access             0.0000 # avg number accesses of bpred unit
avg_window_access            8.0875 # avg number accesses of instruction window
avg_lsq_access               0.9838 # avg number accesses of lsq
avg_regfile_access           3.2404 # avg number accesses of arch. regfile
avg_icache_access            2.2997 # avg number accesses of icache
avg_dcache_access            0.9637 # avg number accesses of dcache
avg_dcache2_access           0.0321 # avg number accesses of dcache2
avg_alu_access               2.0102 # avg number accesses of alu
avg_resultbus_access         2.3711 # avg number accesses of resultbus
max_rename_access                 4 # max number accesses of rename unit
max_bpred_access                  0 # max number accesses of bpred unit
max_window_access                18 # max number accesses of instruction window
max_lsq_access                    5 # max number accesses of load/store queue
max_regfile_access               12 # max number accesses of arch. regfile
max_icache_access                 4 # max number accesses of icache
max_dcache_access                 4 # max number accesses of dcache
max_dcache2_access                5 # max number accesses of dcache2
max_alu_access                    4 # max number accesses of alu
max_resultbus_access              8 # max number accesses of resultbus
max_cycle_power_cc1         60.3389 # maximum cycle power usage of cc1
max_cycle_power_cc2         41.7363 # maximum cycle power usage of cc2
max_cycle_power_cc3         43.9858 # maximum cycle power usage of cc3
sim_invalid_addrs                 0 # total non-speculative bogus addresses seen (debug var)
ld_text_base           0x0120000000 # program text (code) segment base
ld_text_size                 794624 # program text (code) size in bytes
ld_data_base           0x0140000000 # program initialized data segment base
ld_data_size                 216592 # program init'ed `.data' and uninit'ed `.bss' size in bytes
ld_stack_base          0x011ff9b000 # program stack segment base (highest address in stack)
ld_stack_size                 16384 # program initial stack size
ld_prog_entry          0x012009cb24 # program entry point (initial PC)
ld_environ_base        0x011ff955d0 # program environment base address address
ld_target_big_endian              0 # target executable endian-ness, non-zero if big endian
mem.page_count                  163 # total number of pages allocated
mem.page_mem                  1304k # total size of memory pages allocated
mem.ptab_misses              336187 # total first level page table misses
mem.ptab_accesses         892095378 # total page table accesses
mem.ptab_miss_rate           0.0004 # first level page table miss rate

