sim-outorder: SimpleScalar/Alpha Tool Set version 3.0 of August, 2003.
Copyright (c) 1994-2003 by Todd M. Austin, Ph.D. and SimpleScalar, LLC.
All Rights Reserved. This version of SimpleScalar is licensed for academic
non-commercial use.  No portion of this work may be used by any commercial
entity, or for any commercial purpose, without the prior written permission
of SimpleScalar, LLC (info@simplescalar.com).


Processor Parameters:
Issue Width: 4
Window Size: 32
Number of Virtual Registers: 32
Number of Physical Registers: 32
Datapath Width: 64
Total Power Consumption: 77.1436
Branch Predictor Power Consumption: 3.33649  (4.44%)
 branch target buffer power (W): 2.49493
 local predict power (W): 0.574771
 global predict power (W): 0.0996078
 chooser power (W): 0.0702439
 RAS power (W): 0.0969383
Rename Logic Power Consumption: 0.484305  (0.645%)
 Instruction Decode Power (W): 0.0159915
 RAT decode_power (W): 0.113514
 RAT wordline_power (W): 0.0354288
 RAT bitline_power (W): 0.308463
 DCL Comparators (W): 0.0109075
Instruction Window Power Consumption: 3.88117  (5.17%)
 tagdrive (W): 0.19858
 tagmatch (W): 0.0805895
 Selection Logic (W): 0.0295277
 decode_power (W): 0.113514
 wordline_power (W): 0.0844643
 bitline_power (W): 3.37449
Load/Store Queue Power Consumption: 1.18197  (1.57%)
 tagdrive (W): 0.457232
 tagmatch (W): 0.100774
 decode_power (W): 0.00799577
 wordline_power (W): 0.0150119
 bitline_power (W): 0.60096
Arch. Register File Power Consumption: 3.57247  (4.75%)
 decode_power (W): 0.113514
 wordline_power (W): 0.0844643
 bitline_power (W): 3.37449
Result Bus Power Consumption: 2.75173  (3.66%)
Total Clock Power: 28.42  (37.8%)
Int ALU Power: 4.66013  (6.2%)
FP ALU Power: 14.281  (19%)
Instruction Cache Power Consumption: 2.76773  (3.68%)
 decode_power (W): 0.151353
 wordline_power (W): 0.180479
 bitline_power (W): 1.42251
 senseamp_power (W): 0.768
 tagarray_power (W): 0.245382
Itlb_power (W): 0.264834 (0.352%)
Data Cache Power Consumption: 5.53546  (7.37%)
 decode_power (W): 0.302705
 wordline_power (W): 0.360958
 bitline_power (W): 2.84503
 senseamp_power (W): 1.536
 tagarray_power (W): 0.490764
Dtlb_power (W): 0.903238 (1.2%)
Level 2 Cache Power Consumption: 3.10298 (4.13%)
 decode_power (W): 0.19487
 wordline_power (W): 0.0430878
 bitline_power (W): 1.77274
 senseamp_power (W): 0.192
 tagarray_power (W): 0.900275
sim: loading EIO file: ../benchmarks/254.gap.spec_ref.eio.gz
sim: command line: ./sim-outorder -config ../configs/current.config ../benchmarks/254.gap.spec_ref.eio.gz 

sim: simulation started @ Mon Nov 23 21:20:49 2015, options follow:

sim-outorder: This simulator implements a very detailed out-of-order issue
superscalar processor with a two-level memory system and speculative
execution support.  This simulator is a performance simulator, tracking the
latency of all pipeline operations.

# -config                     # load configuration from a file
# -dumpconfig                 # dump configuration to a file
# -h                    false # print help message    
# -v                    false # verbose operation     
# -d                    false # enable debug message  
# -i                    false # start in Dlite debugger
-seed                       1 # random number generator seed (0 for timer seed)
# -q                    false # initialize and terminate immediately
# -chkpt               <null> # restore EIO trace execution from <fname>
# -redir:sim     ../results/15_01_ruu/254.gap.spec_ref.eio.gz.out # redirect simulator output to file (non-interactive only)
# -redir:prog       /dev/null # redirect simulated program output to file
-nice                       0 # simulator scheduling priority
-freq            600000000.0000 # frequency             
-max:inst           100000000 # maximum number of inst's to execute
-fastfwd                    0 # number of insts skipped before timing starts
# -ptrace              <null> # generate pipetrace, i.e., <fname|stdout|stderr> <range>
-fetch:ifqsize              4 # instruction fetch queue size (in insts)
-fetch:mplat               15 # extra branch mis-prediction latency
-fetch:speed                1 # speed of front-end of machine relative to execution core
-bpred                perfect # branch predictor type {nottaken|taken|perfect|bimod|2lev|comb}
-bpred:bimod     2048 # bimodal predictor config (<table size>)
-bpred:2lev      1 16384 4 0 # 2-level predictor config (<l1size> <l2size> <hist_size> <xor>)
-bpred:comb      1024 # combining predictor config (<meta_table_size>)
-bpred:ras                  8 # return address stack size (0 for no return stack)
-bpred:btb       512 4 # BTB config (<num_sets> <associativity>)
# -bpred:spec_update       <null> # speculative predictors update in {ID|WB} (default non-spec)
-decode:width               4 # instruction decode B/W (insts/cycle)
-issue:width                4 # instruction issue B/W (insts/cycle)
-issue:inorder          false # run pipeline with in-order issue
-issue:wrongpath         true # issue instructions down wrong execution paths
-commit:width               4 # instruction commit B/W (insts/cycle)
-ruu:size                  32 # register update unit (RUU) size
-lsq:size                   8 # load/store queue (LSQ) size
-cache:dl1       dl1:32:64:8:f # l1 data cache config, i.e., {<config>|none}
-cache:dl1lat               1 # l1 data cache hit latency (in cycles)
-cache:dl2       dl2:256:64:8:f # l2 data cache config, i.e., {<config>|none}
-cache:dl2lat               2 # l2 data cache hit latency (in cycles)
-cache:il1       il1:32:64:8:f # l1 inst cache config, i.e., {<config>|dl1|dl2|none}
-cache:il1lat               1 # l1 instruction cache hit latency (in cycles)
-cache:il2                dl2 # l2 instruction cache config, i.e., {<config>|dl2|none}
-cache:il2lat               2 # l2 instruction cache hit latency (in cycles)
-cache:flush            false # flush caches on system calls
-cache:icompress        false # convert 64-bit inst addresses to 32-bit inst equivalents
-mem:lat         103 1 # memory access latency (<first_chunk> <inter_chunk>)
-mem:width                  8 # memory access bus width (in bytes)
-tlb:itlb        itlb:16:4096:4:l # instruction TLB config, i.e., {<config>|none}
-tlb:dtlb        dtlb:32:4096:4:l # data TLB config, i.e., {<config>|none}
-tlb:lat                   30 # inst/data TLB miss latency (in cycles)
-res:ialu                   4 # total number of integer ALU's available
-res:imult                  1 # total number of integer multiplier/dividers available
-res:memport                2 # total number of memory system ports available (to CPU)
-res:fpalu                  4 # total number of floating point ALU's available
-res:fpmult                 1 # total number of floating point multiplier/dividers available
# -pcstat              <null> # profile stat(s) against text addr's (mult uses ok)
-bugcompat              false # operate in backward-compatible bugs mode (for testing only)

  Pipetrace range arguments are formatted as follows:

    {{@|#}<start>}:{{@|#|+}<end>}

  Both ends of the range are optional, if neither are specified, the entire
  execution is traced.  Ranges that start with a `@' designate an address
  range to be traced, those that start with an `#' designate a cycle count
  range.  All other range values represent an instruction count range.  The
  second argument, if specified with a `+', indicates a value relative
  to the first argument, e.g., 1000:+100 == 1000:1100.  Program symbols may
  be used in all contexts.

    Examples:   -ptrace FOO.trc #0:#1000
                -ptrace BAR.trc @2000:
                -ptrace BLAH.trc :1500
                -ptrace UXXE.trc :
                -ptrace FOOBAR.trc @main:+278

  Branch predictor configuration examples for 2-level predictor:
    Configurations:   N, M, W, X
      N   # entries in first level (# of shift register(s))
      W   width of shift register(s)
      M   # entries in 2nd level (# of counters, or other FSM)
      X   (yes-1/no-0) xor history and address for 2nd level index
    Sample predictors:
      GAg     : 1, W, 2^W, 0
      GAp     : 1, W, M (M > 2^W), 0
      PAg     : N, W, 2^W, 0
      PAp     : N, W, M (M == 2^(N+W)), 0
      gshare  : 1, W, 2^W, 1
  Predictor `comb' combines a bimodal and a 2-level predictor.

  The cache config parameter <config> has the following format:

    <name>:<nsets>:<bsize>:<assoc>:<repl>

    <name>   - name of the cache being defined
    <nsets>  - number of sets in the cache
    <bsize>  - block size of the cache
    <assoc>  - associativity of the cache
    <repl>   - block replacement strategy, 'l'-LRU, 'f'-FIFO, 'r'-random

    Examples:   -cache:dl1 dl1:4096:32:1:l
                -dtlb dtlb:128:4096:32:r

  Cache levels can be unified by pointing a level of the instruction cache
  hierarchy at the data cache hiearchy using the "dl1" and "dl2" cache
  configuration arguments.  Most sensible combinations are supported, e.g.,

    A unified l2 cache (il2 is pointed at dl2):
      -cache:il1 il1:128:64:1:l -cache:il2 dl2
      -cache:dl1 dl1:256:32:1:l -cache:dl2 ul2:1024:64:2:l

    Or, a fully unified cache hierarchy (il1 pointed at dl1):
      -cache:il1 dl1
      -cache:dl1 ul1:256:32:1:l -cache:dl2 ul2:1024:64:2:l



sim: ** starting performance simulation **

sim: ** simulation statistics **
sim_num_insn              100000000 # total number of instructions committed
sim_num_refs               38627056 # total number of loads and stores committed
sim_num_loads              28651457 # total number of loads committed
sim_num_stores         9975599.0000 # total number of stores committed
sim_num_branches           12668151 # total number of branches committed
sim_elapsed_time                 97 # total simulation time in seconds
sim_inst_rate          1030927.8351 # simulation speed (in insts/sec)
sim_total_insn            100000000 # total number of instructions executed
sim_total_refs             38627056 # total number of loads and stores executed
sim_total_loads            28651457 # total number of loads executed
sim_total_stores       9975599.0000 # total number of stores executed
sim_total_branches         12668151 # total number of branches executed
sim_cycle                  47857630 # total simulation time in cycles
sim_IPC                      2.0895 # instructions per cycle
sim_CPI                      0.4786 # cycles per instruction
sim_exec_BW                  2.0895 # total instructions (mis-spec + committed) per cycle
sim_IPB                      7.8938 # instruction per branch
IFQ_count                 190330750 # cumulative IFQ occupancy
IFQ_fcount                 47580876 # cumulative IFQ full count
ifq_occupancy                3.9770 # avg IFQ occupancy (insn's)
ifq_rate                     2.0895 # avg IFQ dispatch rate (insn/cycle)
ifq_latency                  1.9033 # avg IFQ occupant latency (cycle's)
ifq_full                     0.9942 # fraction of time (cycle's) IFQ was full
RUU_count                 812795888 # cumulative RUU occupancy
RUU_fcount                    77668 # cumulative RUU full count
ruu_occupancy               16.9836 # avg RUU occupancy (insn's)
ruu_rate                     2.0895 # avg RUU dispatch rate (insn/cycle)
ruu_latency                  8.1280 # avg RUU occupant latency (cycle's)
ruu_full                     0.0016 # fraction of time (cycle's) RUU was full
LSQ_count                 331267613 # cumulative LSQ occupancy
LSQ_fcount                 26192019 # cumulative LSQ full count
lsq_occupancy                6.9219 # avg LSQ occupancy (insn's)
lsq_rate                     2.0895 # avg LSQ dispatch rate (insn/cycle)
lsq_latency                  3.3127 # avg LSQ occupant latency (cycle's)
lsq_full                     0.5473 # fraction of time (cycle's) LSQ was full
sim_slip                 1282690457 # total number of slip cycles
avg_sim_slip                12.8269 # the average slip between issue and retirement
il1.accesses              113622565 # total number of accesses
il1.hits                  113620018 # total number of hits
il1.misses                     2547 # total number of misses
il1.replacements               2314 # total number of replacements
il1.writebacks                    0 # total number of writebacks
il1.invalidations                 0 # total number of invalidations
il1.miss_rate                0.0000 # miss rate (i.e., misses/ref)
il1.repl_rate                0.0000 # replacement rate (i.e., repls/ref)
il1.wb_rate                  0.0000 # writeback rate (i.e., wrbks/ref)
il1.inv_rate                 0.0000 # invalidation rate (i.e., invs/ref)
dl1.accesses               38008731 # total number of accesses
dl1.hits                   37838520 # total number of hits
dl1.misses                   170211 # total number of misses
dl1.replacements             169955 # total number of replacements
dl1.writebacks               141637 # total number of writebacks
dl1.invalidations                 0 # total number of invalidations
dl1.miss_rate                0.0045 # miss rate (i.e., misses/ref)
dl1.repl_rate                0.0045 # replacement rate (i.e., repls/ref)
dl1.wb_rate                  0.0037 # writeback rate (i.e., wrbks/ref)
dl1.inv_rate                 0.0000 # invalidation rate (i.e., invs/ref)
dl2.accesses                 314395 # total number of accesses
dl2.hits                     178430 # total number of hits
dl2.misses                   135965 # total number of misses
dl2.replacements             133917 # total number of replacements
dl2.writebacks               128033 # total number of writebacks
dl2.invalidations                 0 # total number of invalidations
dl2.miss_rate                0.4325 # miss rate (i.e., misses/ref)
dl2.repl_rate                0.4260 # replacement rate (i.e., repls/ref)
dl2.wb_rate                  0.4072 # writeback rate (i.e., wrbks/ref)
dl2.inv_rate                 0.0000 # invalidation rate (i.e., invs/ref)
itlb.accesses             113622565 # total number of accesses
itlb.hits                 113622546 # total number of hits
itlb.misses                      19 # total number of misses
itlb.replacements                 0 # total number of replacements
itlb.writebacks                   0 # total number of writebacks
itlb.invalidations                0 # total number of invalidations
itlb.miss_rate               0.0000 # miss rate (i.e., misses/ref)
itlb.repl_rate               0.0000 # replacement rate (i.e., repls/ref)
itlb.wb_rate                 0.0000 # writeback rate (i.e., wrbks/ref)
itlb.inv_rate                0.0000 # invalidation rate (i.e., invs/ref)
dtlb.accesses              38627049 # total number of accesses
dtlb.hits                  38624864 # total number of hits
dtlb.misses                    2185 # total number of misses
dtlb.replacements              2057 # total number of replacements
dtlb.writebacks                   0 # total number of writebacks
dtlb.invalidations                0 # total number of invalidations
dtlb.miss_rate               0.0001 # miss rate (i.e., misses/ref)
dtlb.repl_rate               0.0001 # replacement rate (i.e., repls/ref)
dtlb.wb_rate                 0.0000 # writeback rate (i.e., wrbks/ref)
dtlb.inv_rate                0.0000 # invalidation rate (i.e., invs/ref)
rename_power           23177710.9128 # total power usage of rename unit
bpred_power            159676432.8923 # total power usage of bpred unit
window_power           185743561.8760 # total power usage of instruction window
lsq_power              56566482.3703 # total power usage of load/store queue
regfile_power          170970048.1790 # total power usage of arch. regfile
icache_power           145131280.7392 # total power usage of icache
dcache_power           308140720.6493 # total power usage of dcache
dcache2_power          148501114.1573 # total power usage of dcache2
alu_power              906479765.2797 # total power usage of alu
falu_power             683456965.5706 # total power usage of falu
resultbus_power        131691472.6494 # total power usage of resultbus
clock_power            1360113940.6451 # total power usage of clock
avg_rename_power             0.4843 # avg power usage of rename unit
avg_bpred_power              3.3365 # avg power usage of bpred unit
avg_window_power             3.8812 # avg power usage of instruction window
avg_lsq_power                1.1820 # avg power usage of lsq
avg_regfile_power            3.5725 # avg power usage of arch. regfile
avg_icache_power             3.0326 # avg power usage of icache
avg_dcache_power             6.4387 # avg power usage of dcache
avg_dcache2_power            3.1030 # avg power usage of dcache2
avg_alu_power               18.9412 # avg power usage of alu
avg_falu_power              14.2810 # avg power usage of falu
avg_resultbus_power          2.7517 # avg power usage of resultbus
avg_clock_power             28.4200 # avg power usage of clock
fetch_stage_power      304807713.6315 # total power usage of fetch stage
dispatch_stage_power   23177710.9128 # total power usage of dispatch stage
issue_stage_power      1737123116.9821 # total power usage of issue stage
avg_fetch_power              6.3691 # average power of fetch unit per cycle
avg_dispatch_power           0.4843 # average power of dispatch unit per cycle
avg_issue_power             36.2977 # average power of issue unit per cycle
total_power            3596192530.3505 # total power per cycle
avg_total_power_cycle       75.1436 # average total power per cycle
avg_total_power_cycle_nofp_nod2      57.7595 # average total power per cycle
avg_total_power_insn        35.9619 # average total power per insn
avg_total_power_insn_nofp_nod2      27.6423 # average total power per insn
rename_power_cc1       16967780.3311 # total power usage of rename unit_cc1
bpred_power_cc1              0.0000 # total power usage of bpred unit_cc1
window_power_cc1       162346047.3580 # total power usage of instruction window_cc1
lsq_power_cc1          16979107.4145 # total power usage of lsq_cc1
regfile_power_cc1      120240244.9173 # total power usage of arch. regfile_cc1
icache_power_cc1       106251514.5228 # total power usage of icache_cc1
dcache_power_cc1       173092852.7779 # total power usage of dcache_cc1
dcache2_power_cc1       535966.3174 # total power usage of dcache2_cc1
alu_power_cc1          188816512.5278 # total power usage of alu_cc1
resultbus_power_cc1    108794595.9704 # total power usage of resultbus_cc1
clock_power_cc1        581029523.2344 # total power usage of clock_cc1
avg_rename_power_cc1         0.3545 # avg power usage of rename unit_cc1
avg_bpred_power_cc1          0.0000 # avg power usage of bpred unit_cc1
avg_window_power_cc1         3.3923 # avg power usage of instruction window_cc1
avg_lsq_power_cc1            0.3548 # avg power usage of lsq_cc1
avg_regfile_power_cc1        2.5125 # avg power usage of arch. regfile_cc1
avg_icache_power_cc1         2.2202 # avg power usage of icache_cc1
avg_dcache_power_cc1         3.6168 # avg power usage of dcache_cc1
avg_dcache2_power_cc1        0.0112 # avg power usage of dcache2_cc1
avg_alu_power_cc1            3.9454 # avg power usage of alu_cc1
avg_resultbus_power_cc1       2.2733 # avg power usage of resultbus_cc1
avg_clock_power_cc1         12.1408 # avg power usage of clock_cc1
fetch_stage_power_cc1  106251514.5228 # total power usage of fetch stage_cc1
dispatch_stage_power_cc1 16967780.3311 # total power usage of dispatch stage_cc1
issue_stage_power_cc1  650565082.3662 # total power usage of issue stage_cc1
avg_fetch_power_cc1          2.2202 # average power of fetch unit per cycle_cc1
avg_dispatch_power_cc1       0.3545 # average power of dispatch unit per cycle_cc1
avg_issue_power_cc1         13.5938 # average power of issue unit per cycle_cc1
total_power_cycle_cc1  1475054145.3717 # total power per cycle_cc1
avg_total_power_cycle_cc1      30.8217 # average total power per cycle_cc1
avg_total_power_insn_cc1      14.7505 # average total power per insn_cc1
rename_power_cc2       12107636.1784 # total power usage of rename unit_cc2
bpred_power_cc2              0.0000 # total power usage of bpred unit_cc2
window_power_cc2       142142369.4239 # total power usage of instruction window_cc2
lsq_power_cc2          10827302.9266 # total power usage of lsq_cc2
regfile_power_cc2      34332454.1517 # total power usage of arch. regfile_cc2
icache_power_cc2       106251514.5228 # total power usage of icache_cc2
dcache_power_cc2       122363328.0416 # total power usage of dcache_cc2
dcache2_power_cc2       487780.1911 # total power usage of dcache2_cc2
alu_power_cc2          116516069.3377 # total power usage of alu_cc2
resultbus_power_cc2    74801996.6199 # total power usage of resultbus_cc2
clock_power_cc2        402764296.9806 # total power usage of clock_cc2
avg_rename_power_cc2         0.2530 # avg power usage of rename unit_cc2
avg_bpred_power_cc2          0.0000 # avg power usage of bpred unit_cc2
avg_window_power_cc2         2.9701 # avg power usage of instruction window_cc2
avg_lsq_power_cc2            0.2262 # avg power usage of instruction lsq_cc2
avg_regfile_power_cc2        0.7174 # avg power usage of arch. regfile_cc2
avg_icache_power_cc2         2.2202 # avg power usage of icache_cc2
avg_dcache_power_cc2         2.5568 # avg power usage of dcache_cc2
avg_dcache2_power_cc2        0.0102 # avg power usage of dcache2_cc2
avg_alu_power_cc2            2.4346 # avg power usage of alu_cc2
avg_resultbus_power_cc2       1.5630 # avg power usage of resultbus_cc2
avg_clock_power_cc2          8.4159 # avg power usage of clock_cc2
fetch_stage_power_cc2  106251514.5228 # total power usage of fetch stage_cc2
dispatch_stage_power_cc2 12107636.1784 # total power usage of dispatch stage_cc2
issue_stage_power_cc2  467138846.5408 # total power usage of issue stage_cc2
avg_fetch_power_cc2          2.2202 # average power of fetch unit per cycle_cc2
avg_dispatch_power_cc2       0.2530 # average power of dispatch unit per cycle_cc2
avg_issue_power_cc2          9.7610 # average power of issue unit per cycle_cc2
total_power_cycle_cc2  1022594748.3744 # total power per cycle_cc2
avg_total_power_cycle_cc2      21.3674 # average total power per cycle_cc2
avg_total_power_insn_cc2      10.2259 # average total power per insn_cc2
rename_power_cc3       12728629.2355 # total power usage of rename unit_cc3
bpred_power_cc3        15967643.2869 # total power usage of bpred unit_cc3
window_power_cc3       144180037.4120 # total power usage of instruction window_cc3
lsq_power_cc3          14716630.0382 # total power usage of lsq_cc3
regfile_power_cc3      37835347.7214 # total power usage of arch. regfile_cc3
icache_power_cc3       110139491.1231 # total power usage of icache_cc3
dcache_power_cc3       136263917.8812 # total power usage of dcache_cc3
dcache2_power_cc3      15284326.7944 # total power usage of dcache2_cc3
alu_power_cc3          188282394.3451 # total power usage of alu_cc3
resultbus_power_cc3    76371653.4441 # total power usage of resultbus_cc3
clock_power_cc3        479222012.7599 # total power usage of clock_cc3
avg_rename_power_cc3         0.2660 # avg power usage of rename unit_cc3
avg_bpred_power_cc3          0.3336 # avg power usage of bpred unit_cc3
avg_window_power_cc3         3.0127 # avg power usage of instruction window_cc3
avg_lsq_power_cc3            0.3075 # avg power usage of instruction lsq_cc3
avg_regfile_power_cc3        0.7906 # avg power usage of arch. regfile_cc3
avg_icache_power_cc3         2.3014 # avg power usage of icache_cc3
avg_dcache_power_cc3         2.8473 # avg power usage of dcache_cc3
avg_dcache2_power_cc3        0.3194 # avg power usage of dcache2_cc3
avg_alu_power_cc3            3.9342 # avg power usage of alu_cc3
avg_resultbus_power_cc3       1.5958 # avg power usage of resultbus_cc3
avg_clock_power_cc3         10.0135 # avg power usage of clock_cc3
fetch_stage_power_cc3  126107134.4100 # total power usage of fetch stage_cc3
dispatch_stage_power_cc3 12728629.2355 # total power usage of dispatch stage_cc3
issue_stage_power_cc3  575098959.9150 # total power usage of issue stage_cc3
avg_fetch_power_cc3          2.6350 # average power of fetch unit per cycle_cc3
avg_dispatch_power_cc3       0.2660 # average power of dispatch unit per cycle_cc3
avg_issue_power_cc3         12.0169 # average power of issue unit per cycle_cc3
total_power_cycle_cc3  1230992084.0418 # total power per cycle_cc3
avg_total_power_cycle_cc3      25.7220 # average total power per cycle_cc3
avg_total_power_insn_cc3      12.3099 # average total power per insn_cc3
total_rename_access       100000000 # total number accesses of rename unit
total_bpred_access                0 # total number accesses of bpred unit
total_window_access       378826844 # total number accesses of instruction window
total_lsq_access           39245367 # total number accesses of load/store queue
total_regfile_access      131085645 # total number accesses of arch. regfile
total_icache_access       113622565 # total number accesses of icache
total_dcache_access        38008731 # total number accesses of dcache
total_dcache2_access         314395 # total number accesses of dcache2
total_alu_access           99999996 # total number accesses of alu
total_resultbus_access    115983294 # total number accesses of resultbus
avg_rename_access            2.0895 # avg number accesses of rename unit
avg_bpred_access             0.0000 # avg number accesses of bpred unit
avg_window_access            7.9157 # avg number accesses of instruction window
avg_lsq_access               0.8200 # avg number accesses of lsq
avg_regfile_access           2.7391 # avg number accesses of arch. regfile
avg_icache_access            2.3742 # avg number accesses of icache
avg_dcache_access            0.7942 # avg number accesses of dcache
avg_dcache2_access           0.0066 # avg number accesses of dcache2
avg_alu_access               2.0895 # avg number accesses of alu
avg_resultbus_access         2.4235 # avg number accesses of resultbus
max_rename_access                 4 # max number accesses of rename unit
max_bpred_access                  0 # max number accesses of bpred unit
max_window_access                18 # max number accesses of instruction window
max_lsq_access                    5 # max number accesses of load/store queue
max_regfile_access               10 # max number accesses of arch. regfile
max_icache_access                 4 # max number accesses of icache
max_dcache_access                 4 # max number accesses of dcache
max_dcache2_access                4 # max number accesses of dcache2
max_alu_access                    4 # max number accesses of alu
max_resultbus_access              8 # max number accesses of resultbus
max_cycle_power_cc1         51.3813 # maximum cycle power usage of cc1
max_cycle_power_cc2         35.7054 # maximum cycle power usage of cc2
max_cycle_power_cc3         39.1245 # maximum cycle power usage of cc3
sim_invalid_addrs                 0 # total non-speculative bogus addresses seen (debug var)
ld_text_base           0x0120000000 # program text (code) segment base
ld_text_size                 933888 # program text (code) size in bytes
ld_data_base           0x0140000000 # program initialized data segment base
ld_data_size                1034176 # program init'ed `.data' and uninit'ed `.bss' size in bytes
ld_stack_base          0x011ff9b000 # program stack segment base (highest address in stack)
ld_stack_size                 16384 # program initial stack size
ld_prog_entry          0x01200508cc # program entry point (initial PC)
ld_environ_base        0x011ff968c0 # program environment base address address
ld_target_big_endian              0 # target executable endian-ness, non-zero if big endian
mem.page_count                24731 # total number of pages allocated
mem.page_mem                197848k # total size of memory pages allocated
mem.ptab_misses               28320 # total first level page table misses
mem.ptab_accesses        1157557854 # total page table accesses
mem.ptab_miss_rate           0.0000 # first level page table miss rate

