sim-outorder: SimpleScalar/Alpha Tool Set version 3.0 of August, 2003.
Copyright (c) 1994-2003 by Todd M. Austin, Ph.D. and SimpleScalar, LLC.
All Rights Reserved. This version of SimpleScalar is licensed for academic
non-commercial use.  No portion of this work may be used by any commercial
entity, or for any commercial purpose, without the prior written permission
of SimpleScalar, LLC (info@simplescalar.com).


Processor Parameters:
Issue Width: 16
Window Size: 64
Number of Virtual Registers: 32
Number of Physical Registers: 64
Datapath Width: 64
Total Power Consumption: 236.892
Branch Predictor Power Consumption: 2.84842  (1.21%)
 branch target buffer power (W): 2.49493
 local predict power (W): 0.0867068
 global predict power (W): 0.0996078
 chooser power (W): 0.0702439
 RAS power (W): 0.0969383
Rename Logic Power Consumption: 3.27072  (1.39%)
 Instruction Decode Power (W): 0.0639661
 RAT decode_power (W): 0.454058
 RAT wordline_power (W): 0.227603
 RAT bitline_power (W): 2.30694
 DCL Comparators (W): 0.218151
Instruction Window Power Consumption: 43.216  (18.4%)
 tagdrive (W): 2.9395
 tagmatch (W): 0.989695
 Selection Logic (W): 0.225484
 decode_power (W): 0.976583
 wordline_power (W): 1.0557
 bitline_power (W): 37.0291
Load/Store Queue Power Consumption: 15.574  (6.63%)
 tagdrive (W): 8.57132
 tagmatch (W): 3.43755
 decode_power (W): 0.362444
 wordline_power (W): 0.0433172
 bitline_power (W): 3.15933
Arch. Register File Power Consumption: 25.1387  (10.7%)
 decode_power (W): 0.454058
 wordline_power (W): 1.0557
 bitline_power (W): 23.629
Result Bus Power Consumption: 31.3281  (13.3%)
Total Clock Power: 61.28  (26.1%)
Int ALU Power: 4.66013  (1.98%)
FP ALU Power: 28.5621  (12.2%)
Instruction Cache Power Consumption: 2.76773  (1.18%)
 decode_power (W): 0.151353
 wordline_power (W): 0.180479
 bitline_power (W): 1.42251
 senseamp_power (W): 0.768
 tagarray_power (W): 0.245382
Itlb_power (W): 0.264936 (0.113%)
Data Cache Power Consumption: 11.0709  (4.71%)
 decode_power (W): 0.60541
 wordline_power (W): 0.721917
 bitline_power (W): 5.69006
 senseamp_power (W): 3.072
 tagarray_power (W): 0.981529
Dtlb_power (W): 1.80688 (0.769%)
Level 2 Cache Power Consumption: 3.10298 (1.32%)
 decode_power (W): 0.19487
 wordline_power (W): 0.0430878
 bitline_power (W): 1.77274
 senseamp_power (W): 0.192
 tagarray_power (W): 0.900275
sim: loading EIO file: ../benchmarks/179.art.110-ref.eio.gz
sim: command line: ./sim-outorder -config ../configs/current.config ../benchmarks/179.art.110-ref.eio.gz 

sim: simulation started @ Tue Nov 24 12:12:38 2015, options follow:

sim-outorder: This simulator implements a very detailed out-of-order issue
superscalar processor with a two-level memory system and speculative
execution support.  This simulator is a performance simulator, tracking the
latency of all pipeline operations.

# -config                     # load configuration from a file
# -dumpconfig                 # dump configuration to a file
# -h                    false # print help message    
# -v                    false # verbose operation     
# -d                    false # enable debug message  
# -i                    false # start in Dlite debugger
-seed                       1 # random number generator seed (0 for timer seed)
# -q                    false # initialize and terminate immediately
# -chkpt               <null> # restore EIO trace execution from <fname>
# -redir:sim     ../results/24_20_lsq/179.art.110-ref.eio.gz.out # redirect simulator output to file (non-interactive only)
# -redir:prog       /dev/null # redirect simulated program output to file
-nice                       0 # simulator scheduling priority
-freq            600000000.0000 # frequency             
-max:inst           100000000 # maximum number of inst's to execute
-fastfwd                    0 # number of insts skipped before timing starts
# -ptrace              <null> # generate pipetrace, i.e., <fname|stdout|stderr> <range>
-fetch:ifqsize             16 # instruction fetch queue size (in insts)
-fetch:mplat               15 # extra branch mis-prediction latency
-fetch:speed                1 # speed of front-end of machine relative to execution core
-bpred                perfect # branch predictor type {nottaken|taken|perfect|bimod|2lev|comb}
-bpred:bimod     2048 # bimodal predictor config (<table size>)
-bpred:2lev      1 1024 4 0 # 2-level predictor config (<l1size> <l2size> <hist_size> <xor>)
-bpred:comb      1024 # combining predictor config (<meta_table_size>)
-bpred:ras                  8 # return address stack size (0 for no return stack)
-bpred:btb       512 4 # BTB config (<num_sets> <associativity>)
# -bpred:spec_update       <null> # speculative predictors update in {ID|WB} (default non-spec)
-decode:width              16 # instruction decode B/W (insts/cycle)
-issue:width               16 # instruction issue B/W (insts/cycle)
-issue:inorder          false # run pipeline with in-order issue
-issue:wrongpath         true # issue instructions down wrong execution paths
-commit:width              16 # instruction commit B/W (insts/cycle)
-ruu:size                  64 # register update unit (RUU) size
-lsq:size                 128 # load/store queue (LSQ) size
-cache:dl1       dl1:32:64:8:f # l1 data cache config, i.e., {<config>|none}
-cache:dl1lat               1 # l1 data cache hit latency (in cycles)
-cache:dl2       dl2:256:64:8:f # l2 data cache config, i.e., {<config>|none}
-cache:dl2lat               2 # l2 data cache hit latency (in cycles)
-cache:il1       il1:32:64:8:f # l1 inst cache config, i.e., {<config>|dl1|dl2|none}
-cache:il1lat               1 # l1 instruction cache hit latency (in cycles)
-cache:il2                dl2 # l2 instruction cache config, i.e., {<config>|dl2|none}
-cache:il2lat               2 # l2 instruction cache hit latency (in cycles)
-cache:flush            false # flush caches on system calls
-cache:icompress        false # convert 64-bit inst addresses to 32-bit inst equivalents
-mem:lat         103 1 # memory access latency (<first_chunk> <inter_chunk>)
-mem:width                  8 # memory access bus width (in bytes)
-tlb:itlb        itlb:16:4096:4:l # instruction TLB config, i.e., {<config>|none}
-tlb:dtlb        dtlb:32:4096:4:l # data TLB config, i.e., {<config>|none}
-tlb:lat                   30 # inst/data TLB miss latency (in cycles)
-res:ialu                   4 # total number of integer ALU's available
-res:imult                  2 # total number of integer multiplier/dividers available
-res:memport                4 # total number of memory system ports available (to CPU)
-res:fpalu                  8 # total number of floating point ALU's available
-res:fpmult                 2 # total number of floating point multiplier/dividers available
# -pcstat              <null> # profile stat(s) against text addr's (mult uses ok)
-bugcompat              false # operate in backward-compatible bugs mode (for testing only)

  Pipetrace range arguments are formatted as follows:

    {{@|#}<start>}:{{@|#|+}<end>}

  Both ends of the range are optional, if neither are specified, the entire
  execution is traced.  Ranges that start with a `@' designate an address
  range to be traced, those that start with an `#' designate a cycle count
  range.  All other range values represent an instruction count range.  The
  second argument, if specified with a `+', indicates a value relative
  to the first argument, e.g., 1000:+100 == 1000:1100.  Program symbols may
  be used in all contexts.

    Examples:   -ptrace FOO.trc #0:#1000
                -ptrace BAR.trc @2000:
                -ptrace BLAH.trc :1500
                -ptrace UXXE.trc :
                -ptrace FOOBAR.trc @main:+278

  Branch predictor configuration examples for 2-level predictor:
    Configurations:   N, M, W, X
      N   # entries in first level (# of shift register(s))
      W   width of shift register(s)
      M   # entries in 2nd level (# of counters, or other FSM)
      X   (yes-1/no-0) xor history and address for 2nd level index
    Sample predictors:
      GAg     : 1, W, 2^W, 0
      GAp     : 1, W, M (M > 2^W), 0
      PAg     : N, W, 2^W, 0
      PAp     : N, W, M (M == 2^(N+W)), 0
      gshare  : 1, W, 2^W, 1
  Predictor `comb' combines a bimodal and a 2-level predictor.

  The cache config parameter <config> has the following format:

    <name>:<nsets>:<bsize>:<assoc>:<repl>

    <name>   - name of the cache being defined
    <nsets>  - number of sets in the cache
    <bsize>  - block size of the cache
    <assoc>  - associativity of the cache
    <repl>   - block replacement strategy, 'l'-LRU, 'f'-FIFO, 'r'-random

    Examples:   -cache:dl1 dl1:4096:32:1:l
                -dtlb dtlb:128:4096:32:r

  Cache levels can be unified by pointing a level of the instruction cache
  hierarchy at the data cache hiearchy using the "dl1" and "dl2" cache
  configuration arguments.  Most sensible combinations are supported, e.g.,

    A unified l2 cache (il2 is pointed at dl2):
      -cache:il1 il1:128:64:1:l -cache:il2 dl2
      -cache:dl1 dl1:256:32:1:l -cache:dl2 ul2:1024:64:2:l

    Or, a fully unified cache hierarchy (il1 pointed at dl1):
      -cache:il1 dl1
      -cache:dl1 ul1:256:32:1:l -cache:dl2 ul2:1024:64:2:l



sim: ** starting performance simulation **

sim: ** simulation statistics **
sim_num_insn              100000008 # total number of instructions committed
sim_num_refs               32313279 # total number of loads and stores committed
sim_num_loads              24977029 # total number of loads committed
sim_num_stores         7336250.0000 # total number of stores committed
sim_num_branches           14258409 # total number of branches committed
sim_elapsed_time                200 # total simulation time in seconds
sim_inst_rate           500000.0400 # simulation speed (in insts/sec)
sim_total_insn            100000008 # total number of instructions executed
sim_total_refs             32313279 # total number of loads and stores executed
sim_total_loads            24977029 # total number of loads executed
sim_total_stores       7336250.0000 # total number of stores executed
sim_total_branches         14258409 # total number of branches executed
sim_cycle                 158256396 # total simulation time in cycles
sim_IPC                      0.6319 # instructions per cycle
sim_CPI                      1.5826 # cycles per instruction
sim_exec_BW                  0.6319 # total instructions (mis-spec + committed) per cycle
sim_IPB                      7.0134 # instruction per branch
IFQ_count                2531805603 # cumulative IFQ occupancy
IFQ_fcount                158237688 # cumulative IFQ full count
ifq_occupancy               15.9981 # avg IFQ occupancy (insn's)
ifq_rate                     0.6319 # avg IFQ dispatch rate (insn/cycle)
ifq_latency                 25.3181 # avg IFQ occupant latency (cycle's)
ifq_full                     0.9999 # fraction of time (cycle's) IFQ was full
RUU_count                9893663469 # cumulative RUU occupancy
RUU_fcount                146361865 # cumulative RUU full count
ruu_occupancy               62.5167 # avg RUU occupancy (insn's)
ruu_rate                     0.6319 # avg RUU dispatch rate (insn/cycle)
ruu_latency                 98.9366 # avg RUU occupant latency (cycle's)
ruu_full                     0.9248 # fraction of time (cycle's) RUU was full
LSQ_count                3459244886 # cumulative LSQ occupancy
LSQ_fcount                        0 # cumulative LSQ full count
lsq_occupancy               21.8585 # avg LSQ occupancy (insn's)
lsq_rate                     0.6319 # avg LSQ dispatch rate (insn/cycle)
lsq_latency                 34.5924 # avg LSQ occupant latency (cycle's)
lsq_full                     0.0000 # fraction of time (cycle's) LSQ was full
sim_slip                13485219632 # total number of slip cycles
avg_sim_slip               134.8522 # the average slip between issue and retirement
il1.accesses              252462000 # total number of accesses
il1.hits                  252461830 # total number of hits
il1.misses                      170 # total number of misses
il1.replacements                  0 # total number of replacements
il1.writebacks                    0 # total number of writebacks
il1.invalidations                 0 # total number of invalidations
il1.miss_rate                0.0000 # miss rate (i.e., misses/ref)
il1.repl_rate                0.0000 # replacement rate (i.e., repls/ref)
il1.wb_rate                  0.0000 # writeback rate (i.e., wrbks/ref)
il1.inv_rate                 0.0000 # invalidation rate (i.e., invs/ref)
dl1.accesses               32024746 # total number of accesses
dl1.hits                   21556417 # total number of hits
dl1.misses                 10468329 # total number of misses
dl1.replacements           10468073 # total number of replacements
dl1.writebacks              3447571 # total number of writebacks
dl1.invalidations                 0 # total number of invalidations
dl1.miss_rate                0.3269 # miss rate (i.e., misses/ref)
dl1.repl_rate                0.3269 # replacement rate (i.e., repls/ref)
dl1.wb_rate                  0.1077 # writeback rate (i.e., wrbks/ref)
dl1.inv_rate                 0.0000 # invalidation rate (i.e., invs/ref)
dl2.accesses               13916070 # total number of accesses
dl2.hits                    3477307 # total number of hits
dl2.misses                 10438763 # total number of misses
dl2.replacements           10436715 # total number of replacements
dl2.writebacks              3424137 # total number of writebacks
dl2.invalidations                 0 # total number of invalidations
dl2.miss_rate                0.7501 # miss rate (i.e., misses/ref)
dl2.repl_rate                0.7500 # replacement rate (i.e., repls/ref)
dl2.wb_rate                  0.2461 # writeback rate (i.e., wrbks/ref)
dl2.inv_rate                 0.0000 # invalidation rate (i.e., invs/ref)
itlb.accesses             252462000 # total number of accesses
itlb.hits                 252461993 # total number of hits
itlb.misses                       7 # total number of misses
itlb.replacements                 0 # total number of replacements
itlb.writebacks                   0 # total number of writebacks
itlb.invalidations                0 # total number of invalidations
itlb.miss_rate               0.0000 # miss rate (i.e., misses/ref)
itlb.repl_rate               0.0000 # replacement rate (i.e., repls/ref)
itlb.wb_rate                 0.0000 # writeback rate (i.e., wrbks/ref)
itlb.inv_rate                0.0000 # invalidation rate (i.e., invs/ref)
dtlb.accesses              32313269 # total number of accesses
dtlb.hits                  32046593 # total number of hits
dtlb.misses                  266676 # total number of misses
dtlb.replacements            266548 # total number of replacements
dtlb.writebacks                   0 # total number of writebacks
dtlb.invalidations                0 # total number of invalidations
dtlb.miss_rate               0.0083 # miss rate (i.e., misses/ref)
dtlb.repl_rate               0.0082 # replacement rate (i.e., repls/ref)
dtlb.wb_rate                 0.0000 # writeback rate (i.e., wrbks/ref)
dtlb.inv_rate                0.0000 # invalidation rate (i.e., invs/ref)
rename_power           517612124.6455 # total power usage of rename unit
bpred_power            450781422.9979 # total power usage of bpred unit
window_power           6839213072.2250 # total power usage of instruction window
lsq_power              2464679163.8932 # total power usage of load/store queue
regfile_power          3978366799.9806 # total power usage of arch. regfile
icache_power           479938503.9921 # total power usage of icache
dcache_power           2037993608.2936 # total power usage of dcache
dcache2_power          491065922.5428 # total power usage of dcache2
alu_power              5257628867.9703 # total power usage of alu
falu_power             4520133412.6950 # total power usage of falu
resultbus_power        4957874747.5762 # total power usage of resultbus
clock_power            9697950251.2031 # total power usage of clock
avg_rename_power             3.2707 # avg power usage of rename unit
avg_bpred_power              2.8484 # avg power usage of bpred unit
avg_window_power            43.2160 # avg power usage of instruction window
avg_lsq_power               15.5740 # avg power usage of lsq
avg_regfile_power           25.1387 # avg power usage of arch. regfile
avg_icache_power             3.0327 # avg power usage of icache
avg_dcache_power            12.8778 # avg power usage of dcache
avg_dcache2_power            3.1030 # avg power usage of dcache2
avg_alu_power               33.2222 # avg power usage of alu
avg_falu_power              28.5621 # avg power usage of falu
avg_resultbus_power         31.3281 # avg power usage of resultbus
avg_clock_power             61.2800 # avg power usage of clock
fetch_stage_power      930719926.9900 # total power usage of fetch stage
dispatch_stage_power   517612124.6455 # total power usage of dispatch stage
issue_stage_power      22048455382.5011 # total power usage of issue stage
avg_fetch_power              5.8811 # average power of fetch unit per cycle
avg_dispatch_power           3.2707 # average power of dispatch unit per cycle
avg_issue_power            139.3211 # average power of issue unit per cycle
total_power            37173104485.3203 # total power per cycle
avg_total_power_cycle      234.8916 # average total power per cycle
avg_total_power_cycle_nofp_nod2     203.2266 # average total power per cycle
avg_total_power_insn       371.7310 # average total power per insn
avg_total_power_insn_nofp_nod2     321.6190 # average total power per insn
rename_power_cc1       82599991.2877 # total power usage of rename unit_cc1
bpred_power_cc1              0.0000 # total power usage of bpred unit_cc1
window_power_cc1       1934308142.4204 # total power usage of instruction window_cc1
lsq_power_cc1          194398752.0066 # total power usage of lsq_cc1
regfile_power_cc1      575637892.7370 # total power usage of arch. regfile_cc1
icache_power_cc1       76588369.3413 # total power usage of icache_cc1
dcache_power_cc1       218179771.6283 # total power usage of dcache_cc1
dcache2_power_cc1      24495277.2062 # total power usage of dcache2_cc1
alu_power_cc1          531245981.8145 # total power usage of alu_cc1
resultbus_power_cc1    1210979722.6251 # total power usage of resultbus_cc1
clock_power_cc1        1692434844.7337 # total power usage of clock_cc1
avg_rename_power_cc1         0.5219 # avg power usage of rename unit_cc1
avg_bpred_power_cc1          0.0000 # avg power usage of bpred unit_cc1
avg_window_power_cc1        12.2226 # avg power usage of instruction window_cc1
avg_lsq_power_cc1            1.2284 # avg power usage of lsq_cc1
avg_regfile_power_cc1        3.6374 # avg power usage of arch. regfile_cc1
avg_icache_power_cc1         0.4840 # avg power usage of icache_cc1
avg_dcache_power_cc1         1.3786 # avg power usage of dcache_cc1
avg_dcache2_power_cc1        0.1548 # avg power usage of dcache2_cc1
avg_alu_power_cc1            3.3569 # avg power usage of alu_cc1
avg_resultbus_power_cc1       7.6520 # avg power usage of resultbus_cc1
avg_clock_power_cc1         10.6943 # avg power usage of clock_cc1
fetch_stage_power_cc1  76588369.3413 # total power usage of fetch stage_cc1
dispatch_stage_power_cc1 82599991.2877 # total power usage of dispatch stage_cc1
issue_stage_power_cc1  4113607647.7011 # total power usage of issue stage_cc1
avg_fetch_power_cc1          0.4840 # average power of fetch unit per cycle_cc1
avg_dispatch_power_cc1       0.5219 # average power of dispatch unit per cycle_cc1
avg_issue_power_cc1         25.9933 # average power of issue unit per cycle_cc1
total_power_cycle_cc1  6540868745.8008 # total power per cycle_cc1
avg_total_power_cycle_cc1      41.3308 # average total power per cycle_cc1
avg_total_power_insn_cc1      65.4087 # average total power per insn_cc1
rename_power_cc2       20441992.3872 # total power usage of rename unit_cc2
bpred_power_cc2              0.0000 # total power usage of bpred unit_cc2
window_power_cc2       397001443.7728 # total power usage of instruction window_cc2
lsq_power_cc2          81138667.9521 # total power usage of lsq_cc2
regfile_power_cc2      73389872.7843 # total power usage of arch. regfile_cc2
icache_power_cc2       76588369.3413 # total power usage of icache_cc2
dcache_power_cc2       103102037.3946 # total power usage of dcache_cc2
dcache2_power_cc2      10795310.4929 # total power usage of dcache2_cc2
alu_power_cc2          163689750.8553 # total power usage of alu_cc2
resultbus_power_cc2    203238572.4759 # total power usage of resultbus_cc2
clock_power_cc2        395736051.4068 # total power usage of clock_cc2
avg_rename_power_cc2         0.1292 # avg power usage of rename unit_cc2
avg_bpred_power_cc2          0.0000 # avg power usage of bpred unit_cc2
avg_window_power_cc2         2.5086 # avg power usage of instruction window_cc2
avg_lsq_power_cc2            0.5127 # avg power usage of instruction lsq_cc2
avg_regfile_power_cc2        0.4637 # avg power usage of arch. regfile_cc2
avg_icache_power_cc2         0.4840 # avg power usage of icache_cc2
avg_dcache_power_cc2         0.6515 # avg power usage of dcache_cc2
avg_dcache2_power_cc2        0.0682 # avg power usage of dcache2_cc2
avg_alu_power_cc2            1.0343 # avg power usage of alu_cc2
avg_resultbus_power_cc2       1.2842 # avg power usage of resultbus_cc2
avg_clock_power_cc2          2.5006 # avg power usage of clock_cc2
fetch_stage_power_cc2  76588369.3413 # total power usage of fetch stage_cc2
dispatch_stage_power_cc2 20441992.3872 # total power usage of dispatch stage_cc2
issue_stage_power_cc2  958965782.9436 # total power usage of issue stage_cc2
avg_fetch_power_cc2          0.4840 # average power of fetch unit per cycle_cc2
avg_dispatch_power_cc2       0.1292 # average power of dispatch unit per cycle_cc2
avg_issue_power_cc2          6.0596 # average power of issue unit per cycle_cc2
total_power_cycle_cc2  1525122068.8632 # total power per cycle_cc2
avg_total_power_cycle_cc2       9.6370 # average total power per cycle_cc2
avg_total_power_insn_cc2      15.2512 # average total power per insn_cc2
rename_power_cc3       63943205.9093 # total power usage of rename unit_cc3
bpred_power_cc3        45078142.4304 # total power usage of bpred unit_cc3
window_power_cc3       871341238.2067 # total power usage of instruction window_cc3
lsq_power_cc3          307942634.7308 # total power usage of lsq_cc3
regfile_power_cc3      408337802.2995 # total power usage of arch. regfile_cc3
icache_power_cc3       116923383.1524 # total power usage of icache_cc3
dcache_power_cc3       285259990.3429 # total power usage of dcache_cc3
dcache2_power_cc3      57495852.9537 # total power usage of dcache2_cc3
alu_power_cc3          636328038.8762 # total power usage of alu_cc3
resultbus_power_cc3    569854876.9729 # total power usage of resultbus_cc3
clock_power_cc3        1185991367.2191 # total power usage of clock_cc3
avg_rename_power_cc3         0.4040 # avg power usage of rename unit_cc3
avg_bpred_power_cc3          0.2848 # avg power usage of bpred unit_cc3
avg_window_power_cc3         5.5059 # avg power usage of instruction window_cc3
avg_lsq_power_cc3            1.9458 # avg power usage of instruction lsq_cc3
avg_regfile_power_cc3        2.5802 # avg power usage of arch. regfile_cc3
avg_icache_power_cc3         0.7388 # avg power usage of icache_cc3
avg_dcache_power_cc3         1.8025 # avg power usage of dcache_cc3
avg_dcache2_power_cc3        0.3633 # avg power usage of dcache2_cc3
avg_alu_power_cc3            4.0209 # avg power usage of alu_cc3
avg_resultbus_power_cc3       3.6008 # avg power usage of resultbus_cc3
avg_clock_power_cc3          7.4941 # avg power usage of clock_cc3
fetch_stage_power_cc3  162001525.5828 # total power usage of fetch stage_cc3
dispatch_stage_power_cc3 63943205.9093 # total power usage of dispatch stage_cc3
issue_stage_power_cc3  2728222632.0831 # total power usage of issue stage_cc3
avg_fetch_power_cc3          1.0237 # average power of fetch unit per cycle_cc3
avg_dispatch_power_cc3       0.4040 # average power of dispatch unit per cycle_cc3
avg_issue_power_cc3         17.2393 # average power of issue unit per cycle_cc3
total_power_cycle_cc3  4548496533.0938 # total power per cycle_cc3
avg_total_power_cycle_cc3      28.7413 # average total power per cycle_cc3
avg_total_power_insn_cc3      45.4850 # average total power per insn_cc3
total_rename_access       100000008 # total number accesses of rename unit
total_bpred_access                0 # total number accesses of bpred unit
total_window_access       371109283 # total number accesses of instruction window
total_lsq_access           32601792 # total number accesses of load/store queue
total_regfile_access      153668333 # total number accesses of arch. regfile
total_icache_access       252462000 # total number accesses of icache
total_dcache_access        32024746 # total number accesses of dcache
total_dcache2_access       13916070 # total number accesses of dcache2
total_alu_access           99999872 # total number accesses of alu
total_resultbus_access    110718594 # total number accesses of resultbus
avg_rename_access            0.6319 # avg number accesses of rename unit
avg_bpred_access             0.0000 # avg number accesses of bpred unit
avg_window_access            2.3450 # avg number accesses of instruction window
avg_lsq_access               0.2060 # avg number accesses of lsq
avg_regfile_access           0.9710 # avg number accesses of arch. regfile
avg_icache_access            1.5953 # avg number accesses of icache
avg_dcache_access            0.2024 # avg number accesses of dcache
avg_dcache2_access           0.0879 # avg number accesses of dcache2
avg_alu_access               0.6319 # avg number accesses of alu
avg_resultbus_access         0.6996 # avg number accesses of resultbus
max_rename_access                16 # max number accesses of rename unit
max_bpred_access                  0 # max number accesses of bpred unit
max_window_access                44 # max number accesses of instruction window
max_lsq_access                   10 # max number accesses of load/store queue
max_regfile_access               37 # max number accesses of arch. regfile
max_icache_access                16 # max number accesses of icache
max_dcache_access                 8 # max number accesses of dcache
max_dcache2_access                9 # max number accesses of dcache2
max_alu_access                   13 # max number accesses of alu
max_resultbus_access             15 # max number accesses of resultbus
max_cycle_power_cc1        181.9345 # maximum cycle power usage of cc1
max_cycle_power_cc2        127.5373 # maximum cycle power usage of cc2
max_cycle_power_cc3        132.8491 # maximum cycle power usage of cc3
sim_invalid_addrs                 0 # total non-speculative bogus addresses seen (debug var)
ld_text_base           0x0120000000 # program text (code) segment base
ld_text_size                 237568 # program text (code) size in bytes
ld_data_base           0x0140000000 # program initialized data segment base
ld_data_size                  76672 # program init'ed `.data' and uninit'ed `.bss' size in bytes
ld_stack_base          0x011ff9b000 # program stack segment base (highest address in stack)
ld_stack_size                 16384 # program initial stack size
ld_prog_entry          0x012000fb10 # program entry point (initial PC)
ld_environ_base        0x011ff96ea0 # program environment base address address
ld_target_big_endian              0 # target executable endian-ness, non-zero if big endian
mem.page_count                  498 # total number of pages allocated
mem.page_mem                  3984k # total size of memory pages allocated
mem.ptab_misses                 584 # total first level page table misses
mem.ptab_accesses         978813768 # total page table accesses
mem.ptab_miss_rate           0.0000 # first level page table miss rate

