sim-outorder: SimpleScalar/Alpha Tool Set version 3.0 of August, 2003.
Copyright (c) 1994-2003 by Todd M. Austin, Ph.D. and SimpleScalar, LLC.
All Rights Reserved. This version of SimpleScalar is licensed for academic
non-commercial use.  No portion of this work may be used by any commercial
entity, or for any commercial purpose, without the prior written permission
of SimpleScalar, LLC (info@simplescalar.com).


Processor Parameters:
Issue Width: 4
Window Size: 16
Number of Virtual Registers: 32
Number of Physical Registers: 16
Datapath Width: 64
Total Power Consumption: 73.6268
Branch Predictor Power Consumption: 3.34015  (4.66%)
 branch target buffer power (W): 2.49493
 local predict power (W): 0.578433
 global predict power (W): 0.0996078
 chooser power (W): 0.0702439
 RAS power (W): 0.0969383
Rename Logic Power Consumption: 0.417965  (0.584%)
 Instruction Decode Power (W): 0.0159915
 RAT decode_power (W): 0.113514
 RAT wordline_power (W): 0.0307815
 RAT bitline_power (W): 0.246771
 DCL Comparators (W): 0.0109075
Instruction Window Power Consumption: 2.20432  (3.08%)
 tagdrive (W): 0.0943488
 tagmatch (W): 0.033695
 Selection Logic (W): 0.0134217
 decode_power (W): 0.0532503
 wordline_power (W): 0.0844643
 bitline_power (W): 1.92514
Load/Store Queue Power Consumption: 0.96318  (1.34%)
 tagdrive (W): 0.457232
 tagmatch (W): 0.100774
 decode_power (W): 0.00799577
 wordline_power (W): 0.0150119
 bitline_power (W): 0.382166
Arch. Register File Power Consumption: 3.57247  (4.99%)
 decode_power (W): 0.113514
 wordline_power (W): 0.0844643
 bitline_power (W): 3.37449
Result Bus Power Consumption: 2.29754  (3.21%)
Total Clock Power: 27.3158  (38.1%)
Int ALU Power: 4.66013  (6.51%)
FP ALU Power: 14.281  (19.9%)
Instruction Cache Power Consumption: 2.76773  (3.86%)
 decode_power (W): 0.151353
 wordline_power (W): 0.180479
 bitline_power (W): 1.42251
 senseamp_power (W): 0.768
 tagarray_power (W): 0.245382
Itlb_power (W): 0.264834 (0.37%)
Data Cache Power Consumption: 5.53546  (7.73%)
 decode_power (W): 0.302705
 wordline_power (W): 0.360958
 bitline_power (W): 2.84503
 senseamp_power (W): 1.536
 tagarray_power (W): 0.490764
Dtlb_power (W): 0.903238 (1.26%)
Level 2 Cache Power Consumption: 3.10298 (4.33%)
 decode_power (W): 0.19487
 wordline_power (W): 0.0430878
 bitline_power (W): 1.77274
 senseamp_power (W): 0.192
 tagarray_power (W): 0.900275
sim: loading EIO file: ../benchmarks/164.gzip.log-ref.eio.gz
sim: command line: ./sim-outorder -config ../configs/current.config ../benchmarks/164.gzip.log-ref.eio.gz 

sim: simulation started @ Mon Nov 23 20:17:25 2015, options follow:

sim-outorder: This simulator implements a very detailed out-of-order issue
superscalar processor with a two-level memory system and speculative
execution support.  This simulator is a performance simulator, tracking the
latency of all pipeline operations.

# -config                     # load configuration from a file
# -dumpconfig                 # dump configuration to a file
# -h                    false # print help message    
# -v                    false # verbose operation     
# -d                    false # enable debug message  
# -i                    false # start in Dlite debugger
-seed                       1 # random number generator seed (0 for timer seed)
# -q                    false # initialize and terminate immediately
# -chkpt               <null> # restore EIO trace execution from <fname>
# -redir:sim     ../results/09_04_2lbp/164.gzip.log-ref.eio.gz.out # redirect simulator output to file (non-interactive only)
# -redir:prog       /dev/null # redirect simulated program output to file
-nice                       0 # simulator scheduling priority
-freq            600000000.0000 # frequency             
-max:inst           100000000 # maximum number of inst's to execute
-fastfwd                    0 # number of insts skipped before timing starts
# -ptrace              <null> # generate pipetrace, i.e., <fname|stdout|stderr> <range>
-fetch:ifqsize              4 # instruction fetch queue size (in insts)
-fetch:mplat                3 # extra branch mis-prediction latency
-fetch:speed                1 # speed of front-end of machine relative to execution core
-bpred                   2lev # branch predictor type {nottaken|taken|perfect|bimod|2lev|comb}
-bpred:bimod     2048 # bimodal predictor config (<table size>)
-bpred:2lev      1 16384 16 0 # 2-level predictor config (<l1size> <l2size> <hist_size> <xor>)
-bpred:comb      1024 # combining predictor config (<meta_table_size>)
-bpred:ras                  8 # return address stack size (0 for no return stack)
-bpred:btb       512 4 # BTB config (<num_sets> <associativity>)
# -bpred:spec_update       <null> # speculative predictors update in {ID|WB} (default non-spec)
-decode:width               4 # instruction decode B/W (insts/cycle)
-issue:width                4 # instruction issue B/W (insts/cycle)
-issue:inorder          false # run pipeline with in-order issue
-issue:wrongpath         true # issue instructions down wrong execution paths
-commit:width               4 # instruction commit B/W (insts/cycle)
-ruu:size                  16 # register update unit (RUU) size
-lsq:size                   8 # load/store queue (LSQ) size
-cache:dl1       dl1:32:64:8:f # l1 data cache config, i.e., {<config>|none}
-cache:dl1lat               1 # l1 data cache hit latency (in cycles)
-cache:dl2       dl2:256:64:8:f # l2 data cache config, i.e., {<config>|none}
-cache:dl2lat               2 # l2 data cache hit latency (in cycles)
-cache:il1       il1:32:64:8:f # l1 inst cache config, i.e., {<config>|dl1|dl2|none}
-cache:il1lat               1 # l1 instruction cache hit latency (in cycles)
-cache:il2                dl2 # l2 instruction cache config, i.e., {<config>|dl2|none}
-cache:il2lat               2 # l2 instruction cache hit latency (in cycles)
-cache:flush            false # flush caches on system calls
-cache:icompress        false # convert 64-bit inst addresses to 32-bit inst equivalents
-mem:lat         103 1 # memory access latency (<first_chunk> <inter_chunk>)
-mem:width                  8 # memory access bus width (in bytes)
-tlb:itlb        itlb:16:4096:4:l # instruction TLB config, i.e., {<config>|none}
-tlb:dtlb        dtlb:32:4096:4:l # data TLB config, i.e., {<config>|none}
-tlb:lat                   30 # inst/data TLB miss latency (in cycles)
-res:ialu                   4 # total number of integer ALU's available
-res:imult                  1 # total number of integer multiplier/dividers available
-res:memport                2 # total number of memory system ports available (to CPU)
-res:fpalu                  4 # total number of floating point ALU's available
-res:fpmult                 1 # total number of floating point multiplier/dividers available
# -pcstat              <null> # profile stat(s) against text addr's (mult uses ok)
-bugcompat              false # operate in backward-compatible bugs mode (for testing only)

  Pipetrace range arguments are formatted as follows:

    {{@|#}<start>}:{{@|#|+}<end>}

  Both ends of the range are optional, if neither are specified, the entire
  execution is traced.  Ranges that start with a `@' designate an address
  range to be traced, those that start with an `#' designate a cycle count
  range.  All other range values represent an instruction count range.  The
  second argument, if specified with a `+', indicates a value relative
  to the first argument, e.g., 1000:+100 == 1000:1100.  Program symbols may
  be used in all contexts.

    Examples:   -ptrace FOO.trc #0:#1000
                -ptrace BAR.trc @2000:
                -ptrace BLAH.trc :1500
                -ptrace UXXE.trc :
                -ptrace FOOBAR.trc @main:+278

  Branch predictor configuration examples for 2-level predictor:
    Configurations:   N, M, W, X
      N   # entries in first level (# of shift register(s))
      W   width of shift register(s)
      M   # entries in 2nd level (# of counters, or other FSM)
      X   (yes-1/no-0) xor history and address for 2nd level index
    Sample predictors:
      GAg     : 1, W, 2^W, 0
      GAp     : 1, W, M (M > 2^W), 0
      PAg     : N, W, 2^W, 0
      PAp     : N, W, M (M == 2^(N+W)), 0
      gshare  : 1, W, 2^W, 1
  Predictor `comb' combines a bimodal and a 2-level predictor.

  The cache config parameter <config> has the following format:

    <name>:<nsets>:<bsize>:<assoc>:<repl>

    <name>   - name of the cache being defined
    <nsets>  - number of sets in the cache
    <bsize>  - block size of the cache
    <assoc>  - associativity of the cache
    <repl>   - block replacement strategy, 'l'-LRU, 'f'-FIFO, 'r'-random

    Examples:   -cache:dl1 dl1:4096:32:1:l
                -dtlb dtlb:128:4096:32:r

  Cache levels can be unified by pointing a level of the instruction cache
  hierarchy at the data cache hiearchy using the "dl1" and "dl2" cache
  configuration arguments.  Most sensible combinations are supported, e.g.,

    A unified l2 cache (il2 is pointed at dl2):
      -cache:il1 il1:128:64:1:l -cache:il2 dl2
      -cache:dl1 dl1:256:32:1:l -cache:dl2 ul2:1024:64:2:l

    Or, a fully unified cache hierarchy (il1 pointed at dl1):
      -cache:il1 dl1
      -cache:dl1 ul1:256:32:1:l -cache:dl2 ul2:1024:64:2:l



sim: ** starting performance simulation **

sim: ** simulation statistics **
sim_num_insn              100000003 # total number of instructions committed
sim_num_refs               29770711 # total number of loads and stores committed
sim_num_loads              24694252 # total number of loads committed
sim_num_stores         5076459.0000 # total number of stores committed
sim_num_branches           11683348 # total number of branches committed
sim_elapsed_time                125 # total simulation time in seconds
sim_inst_rate           800000.0240 # simulation speed (in insts/sec)
sim_total_insn            137109946 # total number of instructions executed
sim_total_refs             40988602 # total number of loads and stores executed
sim_total_loads            35739126 # total number of loads executed
sim_total_stores       5249476.0000 # total number of stores executed
sim_total_branches         14854258 # total number of branches executed
sim_cycle                  88537316 # total simulation time in cycles
sim_IPC                      1.1295 # instructions per cycle
sim_CPI                      0.8854 # cycles per instruction
sim_exec_BW                  1.5486 # total instructions (mis-spec + committed) per cycle
sim_IPB                      8.5592 # instruction per branch
IFQ_count                 307032524 # cumulative IFQ occupancy
IFQ_fcount                 74934232 # cumulative IFQ full count
ifq_occupancy                3.4678 # avg IFQ occupancy (insn's)
ifq_rate                     1.5486 # avg IFQ dispatch rate (insn/cycle)
ifq_latency                  2.2393 # avg IFQ occupant latency (cycle's)
ifq_full                     0.8464 # fraction of time (cycle's) IFQ was full
RUU_count                1127861826 # cumulative RUU occupancy
RUU_fcount                 51267851 # cumulative RUU full count
ruu_occupancy               12.7388 # avg RUU occupancy (insn's)
ruu_rate                     1.5486 # avg RUU dispatch rate (insn/cycle)
ruu_latency                  8.2260 # avg RUU occupant latency (cycle's)
ruu_full                     0.5791 # fraction of time (cycle's) RUU was full
LSQ_count                 352381300 # cumulative LSQ occupancy
LSQ_fcount                  9223139 # cumulative LSQ full count
lsq_occupancy                3.9800 # avg LSQ occupancy (insn's)
lsq_rate                     1.5486 # avg LSQ dispatch rate (insn/cycle)
lsq_latency                  2.5701 # avg LSQ occupant latency (cycle's)
lsq_full                     0.1042 # fraction of time (cycle's) LSQ was full
sim_slip                 1298606063 # total number of slip cycles
avg_sim_slip                12.9861 # the average slip between issue and retirement
bpred_2lev.lookups         17275339 # total number of bpred lookups
bpred_2lev.updates         11683346 # total number of updates
bpred_2lev.addr_hits        8782140 # total number of address-predicted hits
bpred_2lev.dir_hits         8782313 # total number of direction-predicted hits (includes addr-hits)
bpred_2lev.misses           2901033 # total number of misses
bpred_2lev.jr_hits           154005 # total number of address-predicted hits for JR's
bpred_2lev.jr_seen           154049 # total number of JR's seen
bpred_2lev.jr_non_ras_hits.PP           16 # total number of address-predicted hits for non-RAS JR's
bpred_2lev.jr_non_ras_seen.PP           17 # total number of non-RAS JR's seen
bpred_2lev.bpred_addr_rate    0.7517 # branch address-prediction rate (i.e., addr-hits/updates)
bpred_2lev.bpred_dir_rate    0.7517 # branch direction-prediction rate (i.e., all-hits/updates)
bpred_2lev.bpred_jr_rate    0.9997 # JR address-prediction rate (i.e., JR addr-hits/JRs seen)
bpred_2lev.bpred_jr_non_ras_rate.PP    0.9412 # non-RAS JR addr-pred rate (ie, non-RAS JR hits/JRs seen)
bpred_2lev.retstack_pushes       184717 # total number of address pushed onto ret-addr stack
bpred_2lev.retstack_pops      2700593 # total number of address popped off of ret-addr stack
bpred_2lev.used_ras.PP       154032 # total number of RAS predictions used
bpred_2lev.ras_hits.PP       153989 # total number of RAS hits
bpred_2lev.ras_rate.PP    0.9997 # RAS prediction rate (i.e., RAS hits/used RAS)
il1.accesses              148649831 # total number of accesses
il1.hits                  148649667 # total number of hits
il1.misses                      164 # total number of misses
il1.replacements                  0 # total number of replacements
il1.writebacks                    0 # total number of writebacks
il1.invalidations                 0 # total number of invalidations
il1.miss_rate                0.0000 # miss rate (i.e., misses/ref)
il1.repl_rate                0.0000 # replacement rate (i.e., repls/ref)
il1.wb_rate                  0.0000 # writeback rate (i.e., wrbks/ref)
il1.inv_rate                 0.0000 # invalidation rate (i.e., invs/ref)
dl1.accesses               37141835 # total number of accesses
dl1.hits                   32443089 # total number of hits
dl1.misses                  4698746 # total number of misses
dl1.replacements            4698490 # total number of replacements
dl1.writebacks               673432 # total number of writebacks
dl1.invalidations                 0 # total number of invalidations
dl1.miss_rate                0.1265 # miss rate (i.e., misses/ref)
dl1.repl_rate                0.1265 # replacement rate (i.e., repls/ref)
dl1.wb_rate                  0.0181 # writeback rate (i.e., wrbks/ref)
dl1.inv_rate                 0.0000 # invalidation rate (i.e., invs/ref)
dl2.accesses                5372342 # total number of accesses
dl2.hits                    5158092 # total number of hits
dl2.misses                   214250 # total number of misses
dl2.replacements             212202 # total number of replacements
dl2.writebacks               109184 # total number of writebacks
dl2.invalidations                 0 # total number of invalidations
dl2.miss_rate                0.0399 # miss rate (i.e., misses/ref)
dl2.repl_rate                0.0395 # replacement rate (i.e., repls/ref)
dl2.wb_rate                  0.0203 # writeback rate (i.e., wrbks/ref)
dl2.inv_rate                 0.0000 # invalidation rate (i.e., invs/ref)
itlb.accesses             148649831 # total number of accesses
itlb.hits                 148649822 # total number of hits
itlb.misses                       9 # total number of misses
itlb.replacements                 0 # total number of replacements
itlb.writebacks                   0 # total number of writebacks
itlb.invalidations                0 # total number of invalidations
itlb.miss_rate               0.0000 # miss rate (i.e., misses/ref)
itlb.repl_rate               0.0000 # replacement rate (i.e., repls/ref)
itlb.wb_rate                 0.0000 # writeback rate (i.e., wrbks/ref)
itlb.inv_rate                0.0000 # invalidation rate (i.e., invs/ref)
dtlb.accesses              37165368 # total number of accesses
dtlb.hits                  37165143 # total number of hits
dtlb.misses                     225 # total number of misses
dtlb.replacements                97 # total number of replacements
dtlb.writebacks                   0 # total number of writebacks
dtlb.invalidations                0 # total number of invalidations
dtlb.miss_rate               0.0000 # miss rate (i.e., misses/ref)
dtlb.repl_rate               0.0000 # replacement rate (i.e., repls/ref)
dtlb.wb_rate                 0.0000 # writeback rate (i.e., wrbks/ref)
dtlb.inv_rate                0.0000 # invalidation rate (i.e., invs/ref)
rename_power           37005542.3692 # total power usage of rename unit
bpred_power            295727979.2459 # total power usage of bpred unit
window_power           195164524.8414 # total power usage of instruction window
lsq_power              85277371.0733 # total power usage of load/store queue
regfile_power          316297091.2673 # total power usage of arch. regfile
icache_power           268494993.8158 # total power usage of icache
dcache_power           570064843.5702 # total power usage of dcache
dcache2_power          274729234.8544 # total power usage of dcache2
alu_power              1677000835.4966 # total power usage of alu
falu_power             1264405390.2961 # total power usage of falu
resultbus_power        203418280.9178 # total power usage of resultbus
clock_power            2418465945.4444 # total power usage of clock
avg_rename_power             0.4180 # avg power usage of rename unit
avg_bpred_power              3.3402 # avg power usage of bpred unit
avg_window_power             2.2043 # avg power usage of instruction window
avg_lsq_power                0.9632 # avg power usage of lsq
avg_regfile_power            3.5725 # avg power usage of arch. regfile
avg_icache_power             3.0326 # avg power usage of icache
avg_dcache_power             6.4387 # avg power usage of dcache
avg_dcache2_power            3.1030 # avg power usage of dcache2
avg_alu_power               18.9412 # avg power usage of alu
avg_falu_power              14.2810 # avg power usage of falu
avg_resultbus_power          2.2975 # avg power usage of resultbus
avg_clock_power             27.3158 # avg power usage of clock
fetch_stage_power      564222973.0617 # total power usage of fetch stage
dispatch_stage_power   37005542.3692 # total power usage of dispatch stage
issue_stage_power      3005655090.7537 # total power usage of issue stage
avg_fetch_power              6.3727 # average power of fetch unit per cycle
avg_dispatch_power           0.4180 # average power of dispatch unit per cycle
avg_issue_power             33.9479 # average power of issue unit per cycle
total_power            6341646642.8963 # total power per cycle
avg_total_power_cycle       71.6268 # average total power per cycle
avg_total_power_cycle_nofp_nod2      54.2428 # average total power per cycle
avg_total_power_insn        46.2523 # average total power per insn
avg_total_power_insn_nofp_nod2      35.0267 # average total power per insn
rename_power_cc1       19925012.4400 # total power usage of rename unit_cc1
bpred_power_cc1        38333610.4249 # total power usage of bpred unit_cc1
window_power_cc1       130198793.8814 # total power usage of instruction window_cc1
lsq_power_cc1          14170418.1337 # total power usage of lsq_cc1
regfile_power_cc1      170127277.5056 # total power usage of arch. regfile_cc1
icache_power_cc1       153510719.4901 # total power usage of icache_cc1
dcache_power_cc1       165332588.9278 # total power usage of dcache_cc1
dcache2_power_cc1      14469149.6600 # total power usage of dcache2_cc1
alu_power_cc1          250467355.5328 # total power usage of alu_cc1
resultbus_power_cc1    118296039.4039 # total power usage of resultbus_cc1
clock_power_cc1        698318363.0352 # total power usage of clock_cc1
avg_rename_power_cc1         0.2250 # avg power usage of rename unit_cc1
avg_bpred_power_cc1          0.4330 # avg power usage of bpred unit_cc1
avg_window_power_cc1         1.4706 # avg power usage of instruction window_cc1
avg_lsq_power_cc1            0.1601 # avg power usage of lsq_cc1
avg_regfile_power_cc1        1.9215 # avg power usage of arch. regfile_cc1
avg_icache_power_cc1         1.7339 # avg power usage of icache_cc1
avg_dcache_power_cc1         1.8674 # avg power usage of dcache_cc1
avg_dcache2_power_cc1        0.1634 # avg power usage of dcache2_cc1
avg_alu_power_cc1            2.8289 # avg power usage of alu_cc1
avg_resultbus_power_cc1       1.3361 # avg power usage of resultbus_cc1
avg_clock_power_cc1          7.8873 # avg power usage of clock_cc1
fetch_stage_power_cc1  191844329.9150 # total power usage of fetch stage_cc1
dispatch_stage_power_cc1 19925012.4400 # total power usage of dispatch stage_cc1
issue_stage_power_cc1  692934345.5395 # total power usage of issue stage_cc1
avg_fetch_power_cc1          2.1668 # average power of fetch unit per cycle_cc1
avg_dispatch_power_cc1       0.2250 # average power of dispatch unit per cycle_cc1
avg_issue_power_cc1          7.8265 # average power of issue unit per cycle_cc1
total_power_cycle_cc1  1773149328.4353 # total power per cycle_cc1
avg_total_power_cycle_cc1      20.0271 # average total power per cycle_cc1
avg_total_power_insn_cc1      12.9323 # average total power per insn_cc1
rename_power_cc2       14326806.3267 # total power usage of rename unit_cc2
bpred_power_cc2        19512068.2414 # total power usage of bpred unit_cc2
window_power_cc2       104516369.4418 # total power usage of instruction window_cc2
lsq_power_cc2          9890752.1246 # total power usage of lsq_cc2
regfile_power_cc2      46845522.8004 # total power usage of arch. regfile_cc2
icache_power_cc2       153510719.4901 # total power usage of icache_cc2
dcache_power_cc2       119572488.2325 # total power usage of dcache_cc2
dcache2_power_cc2      8335126.2196 # total power usage of dcache2_cc2
alu_power_cc2          146206996.9039 # total power usage of alu_cc2
resultbus_power_cc2    76968816.8709 # total power usage of resultbus_cc2
clock_power_cc2        455881533.4821 # total power usage of clock_cc2
avg_rename_power_cc2         0.1618 # avg power usage of rename unit_cc2
avg_bpred_power_cc2          0.2204 # avg power usage of bpred unit_cc2
avg_window_power_cc2         1.1805 # avg power usage of instruction window_cc2
avg_lsq_power_cc2            0.1117 # avg power usage of instruction lsq_cc2
avg_regfile_power_cc2        0.5291 # avg power usage of arch. regfile_cc2
avg_icache_power_cc2         1.7339 # avg power usage of icache_cc2
avg_dcache_power_cc2         1.3505 # avg power usage of dcache_cc2
avg_dcache2_power_cc2        0.0941 # avg power usage of dcache2_cc2
avg_alu_power_cc2            1.6514 # avg power usage of alu_cc2
avg_resultbus_power_cc2       0.8693 # avg power usage of resultbus_cc2
avg_clock_power_cc2          5.1490 # avg power usage of clock_cc2
fetch_stage_power_cc2  173022787.7315 # total power usage of fetch stage_cc2
dispatch_stage_power_cc2 14326806.3267 # total power usage of dispatch stage_cc2
issue_stage_power_cc2  465490549.7933 # total power usage of issue stage_cc2
avg_fetch_power_cc2          1.9542 # average power of fetch unit per cycle_cc2
avg_dispatch_power_cc2       0.1618 # average power of dispatch unit per cycle_cc2
avg_issue_power_cc2          5.2576 # average power of issue unit per cycle_cc2
total_power_cycle_cc2  1155567200.1340 # total power per cycle_cc2
avg_total_power_cycle_cc2      13.0518 # average total power per cycle_cc2
avg_total_power_insn_cc2       8.4280 # average total power per insn_cc2
rename_power_cc3       16034859.3090 # total power usage of rename unit_cc3
bpred_power_cc3        45251505.1235 # total power usage of bpred unit_cc3
window_power_cc3       110642710.4368 # total power usage of instruction window_cc3
lsq_power_cc3          16986440.4918 # total power usage of lsq_cc3
regfile_power_cc3      59751599.1595 # total power usage of arch. regfile_cc3
icache_power_cc3       165009146.8429 # total power usage of icache_cc3
dcache_power_cc3       160158586.2999 # total power usage of dcache_cc3
dcache2_power_cc3      34363116.5505 # total power usage of dcache2_cc3
alu_power_cc3          288860344.3156 # total power usage of alu_cc3
resultbus_power_cc3    84706738.6770 # total power usage of resultbus_cc3
clock_power_cc3        626101819.0866 # total power usage of clock_cc3
avg_rename_power_cc3         0.1811 # avg power usage of rename unit_cc3
avg_bpred_power_cc3          0.5111 # avg power usage of bpred unit_cc3
avg_window_power_cc3         1.2497 # avg power usage of instruction window_cc3
avg_lsq_power_cc3            0.1919 # avg power usage of instruction lsq_cc3
avg_regfile_power_cc3        0.6749 # avg power usage of arch. regfile_cc3
avg_icache_power_cc3         1.8637 # avg power usage of icache_cc3
avg_dcache_power_cc3         1.8089 # avg power usage of dcache_cc3
avg_dcache2_power_cc3        0.3881 # avg power usage of dcache2_cc3
avg_alu_power_cc3            3.2626 # avg power usage of alu_cc3
avg_resultbus_power_cc3       0.9567 # avg power usage of resultbus_cc3
avg_clock_power_cc3          7.0716 # avg power usage of clock_cc3
fetch_stage_power_cc3  210260651.9664 # total power usage of fetch stage_cc3
dispatch_stage_power_cc3 16034859.3090 # total power usage of dispatch stage_cc3
issue_stage_power_cc3  695717936.7716 # total power usage of issue stage_cc3
avg_fetch_power_cc3          2.3748 # average power of fetch unit per cycle_cc3
avg_dispatch_power_cc3       0.1811 # average power of dispatch unit per cycle_cc3
avg_issue_power_cc3          7.8579 # average power of issue unit per cycle_cc3
total_power_cycle_cc3  1607866866.2931 # total power per cycle_cc3
avg_total_power_cycle_cc3      18.1603 # average total power per cycle_cc3
avg_total_power_insn_cc3      11.7268 # average total power per insn_cc3
total_rename_access       137109946 # total number accesses of rename unit
total_bpred_access         11683346 # total number accesses of bpred unit
total_window_access       480841692 # total number accesses of instruction window
total_lsq_access           37218532 # total number accesses of load/store queue
total_regfile_access      174140040 # total number accesses of arch. regfile
total_icache_access       148650748 # total number accesses of icache
total_dcache_access        37141835 # total number accesses of dcache
total_dcache2_access        5372342 # total number accesses of dcache2
total_alu_access          125496055 # total number accesses of alu
total_resultbus_access    142935432 # total number accesses of resultbus
avg_rename_access            1.5486 # avg number accesses of rename unit
avg_bpred_access             0.1320 # avg number accesses of bpred unit
avg_window_access            5.4309 # avg number accesses of instruction window
avg_lsq_access               0.4204 # avg number accesses of lsq
avg_regfile_access           1.9669 # avg number accesses of arch. regfile
avg_icache_access            1.6790 # avg number accesses of icache
avg_dcache_access            0.4195 # avg number accesses of dcache
avg_dcache2_access           0.0607 # avg number accesses of dcache2
avg_alu_access               1.4174 # avg number accesses of alu
avg_resultbus_access         1.6144 # avg number accesses of resultbus
max_rename_access                 4 # max number accesses of rename unit
max_bpred_access                  2 # max number accesses of bpred unit
max_window_access                17 # max number accesses of instruction window
max_lsq_access                    5 # max number accesses of load/store queue
max_regfile_access               12 # max number accesses of arch. regfile
max_icache_access                 4 # max number accesses of icache
max_dcache_access                 4 # max number accesses of dcache
max_dcache2_access                4 # max number accesses of dcache2
max_alu_access                    4 # max number accesses of alu
max_resultbus_access              7 # max number accesses of resultbus
max_cycle_power_cc1         42.9496 # maximum cycle power usage of cc1
max_cycle_power_cc2         34.5319 # maximum cycle power usage of cc2
max_cycle_power_cc3         37.9202 # maximum cycle power usage of cc3
sim_invalid_addrs                 0 # total non-speculative bogus addresses seen (debug var)
ld_text_base           0x0120000000 # program text (code) segment base
ld_text_size                 212992 # program text (code) size in bytes
ld_data_base           0x0140000000 # program initialized data segment base
ld_data_size                 402416 # program init'ed `.data' and uninit'ed `.bss' size in bytes
ld_stack_base          0x011ff9b000 # program stack segment base (highest address in stack)
ld_stack_size                 16384 # program initial stack size
ld_prog_entry          0x01200095e0 # program entry point (initial PC)
ld_environ_base        0x011ff96ef0 # program environment base address address
ld_target_big_endian              0 # target executable endian-ness, non-zero if big endian
mem.page_count                23129 # total number of pages allocated
mem.page_mem                185032k # total size of memory pages allocated
mem.ptab_misses            20455771 # total first level page table misses
mem.ptab_accesses         957427106 # total page table accesses
mem.ptab_miss_rate           0.0214 # first level page table miss rate

