sim-outorder: SimpleScalar/Alpha Tool Set version 3.0 of August, 2003.
Copyright (c) 1994-2003 by Todd M. Austin, Ph.D. and SimpleScalar, LLC.
All Rights Reserved. This version of SimpleScalar is licensed for academic
non-commercial use.  No portion of this work may be used by any commercial
entity, or for any commercial purpose, without the prior written permission
of SimpleScalar, LLC (info@simplescalar.com).


Processor Parameters:
Issue Width: 4
Window Size: 16
Number of Virtual Registers: 32
Number of Physical Registers: 16
Datapath Width: 64
Total Power Consumption: 73.6268
Branch Predictor Power Consumption: 3.34015  (4.66%)
 branch target buffer power (W): 2.49493
 local predict power (W): 0.578433
 global predict power (W): 0.0996078
 chooser power (W): 0.0702439
 RAS power (W): 0.0969383
Rename Logic Power Consumption: 0.417965  (0.584%)
 Instruction Decode Power (W): 0.0159915
 RAT decode_power (W): 0.113514
 RAT wordline_power (W): 0.0307815
 RAT bitline_power (W): 0.246771
 DCL Comparators (W): 0.0109075
Instruction Window Power Consumption: 2.20432  (3.08%)
 tagdrive (W): 0.0943488
 tagmatch (W): 0.033695
 Selection Logic (W): 0.0134217
 decode_power (W): 0.0532503
 wordline_power (W): 0.0844643
 bitline_power (W): 1.92514
Load/Store Queue Power Consumption: 0.96318  (1.34%)
 tagdrive (W): 0.457232
 tagmatch (W): 0.100774
 decode_power (W): 0.00799577
 wordline_power (W): 0.0150119
 bitline_power (W): 0.382166
Arch. Register File Power Consumption: 3.57247  (4.99%)
 decode_power (W): 0.113514
 wordline_power (W): 0.0844643
 bitline_power (W): 3.37449
Result Bus Power Consumption: 2.29754  (3.21%)
Total Clock Power: 27.3158  (38.1%)
Int ALU Power: 4.66013  (6.51%)
FP ALU Power: 14.281  (19.9%)
Instruction Cache Power Consumption: 2.76773  (3.86%)
 decode_power (W): 0.151353
 wordline_power (W): 0.180479
 bitline_power (W): 1.42251
 senseamp_power (W): 0.768
 tagarray_power (W): 0.245382
Itlb_power (W): 0.264834 (0.37%)
Data Cache Power Consumption: 5.53546  (7.73%)
 decode_power (W): 0.302705
 wordline_power (W): 0.360958
 bitline_power (W): 2.84503
 senseamp_power (W): 1.536
 tagarray_power (W): 0.490764
Dtlb_power (W): 0.903238 (1.26%)
Level 2 Cache Power Consumption: 3.10298 (4.33%)
 decode_power (W): 0.19487
 wordline_power (W): 0.0430878
 bitline_power (W): 1.77274
 senseamp_power (W): 0.192
 tagarray_power (W): 0.900275
sim: loading EIO file: ../benchmarks/252.eon.rushmeier-ref.eio.gz
sim: command line: ./sim-outorder -config ../configs/current.config ../benchmarks/252.eon.rushmeier-ref.eio.gz 

sim: simulation started @ Mon Nov 23 20:17:14 2015, options follow:

sim-outorder: This simulator implements a very detailed out-of-order issue
superscalar processor with a two-level memory system and speculative
execution support.  This simulator is a performance simulator, tracking the
latency of all pipeline operations.

# -config                     # load configuration from a file
# -dumpconfig                 # dump configuration to a file
# -h                    false # print help message    
# -v                    false # verbose operation     
# -d                    false # enable debug message  
# -i                    false # start in Dlite debugger
-seed                       1 # random number generator seed (0 for timer seed)
# -q                    false # initialize and terminate immediately
# -chkpt               <null> # restore EIO trace execution from <fname>
# -redir:sim     ../results/09_04_2lbp/252.eon.rushmeier-ref.eio.gz.out # redirect simulator output to file (non-interactive only)
# -redir:prog       /dev/null # redirect simulated program output to file
-nice                       0 # simulator scheduling priority
-freq            600000000.0000 # frequency             
-max:inst           100000000 # maximum number of inst's to execute
-fastfwd                    0 # number of insts skipped before timing starts
# -ptrace              <null> # generate pipetrace, i.e., <fname|stdout|stderr> <range>
-fetch:ifqsize              4 # instruction fetch queue size (in insts)
-fetch:mplat                3 # extra branch mis-prediction latency
-fetch:speed                1 # speed of front-end of machine relative to execution core
-bpred                   2lev # branch predictor type {nottaken|taken|perfect|bimod|2lev|comb}
-bpred:bimod     2048 # bimodal predictor config (<table size>)
-bpred:2lev      1 16384 16 0 # 2-level predictor config (<l1size> <l2size> <hist_size> <xor>)
-bpred:comb      1024 # combining predictor config (<meta_table_size>)
-bpred:ras                  8 # return address stack size (0 for no return stack)
-bpred:btb       512 4 # BTB config (<num_sets> <associativity>)
# -bpred:spec_update       <null> # speculative predictors update in {ID|WB} (default non-spec)
-decode:width               4 # instruction decode B/W (insts/cycle)
-issue:width                4 # instruction issue B/W (insts/cycle)
-issue:inorder          false # run pipeline with in-order issue
-issue:wrongpath         true # issue instructions down wrong execution paths
-commit:width               4 # instruction commit B/W (insts/cycle)
-ruu:size                  16 # register update unit (RUU) size
-lsq:size                   8 # load/store queue (LSQ) size
-cache:dl1       dl1:32:64:8:f # l1 data cache config, i.e., {<config>|none}
-cache:dl1lat               1 # l1 data cache hit latency (in cycles)
-cache:dl2       dl2:256:64:8:f # l2 data cache config, i.e., {<config>|none}
-cache:dl2lat               2 # l2 data cache hit latency (in cycles)
-cache:il1       il1:32:64:8:f # l1 inst cache config, i.e., {<config>|dl1|dl2|none}
-cache:il1lat               1 # l1 instruction cache hit latency (in cycles)
-cache:il2                dl2 # l2 instruction cache config, i.e., {<config>|dl2|none}
-cache:il2lat               2 # l2 instruction cache hit latency (in cycles)
-cache:flush            false # flush caches on system calls
-cache:icompress        false # convert 64-bit inst addresses to 32-bit inst equivalents
-mem:lat         103 1 # memory access latency (<first_chunk> <inter_chunk>)
-mem:width                  8 # memory access bus width (in bytes)
-tlb:itlb        itlb:16:4096:4:l # instruction TLB config, i.e., {<config>|none}
-tlb:dtlb        dtlb:32:4096:4:l # data TLB config, i.e., {<config>|none}
-tlb:lat                   30 # inst/data TLB miss latency (in cycles)
-res:ialu                   4 # total number of integer ALU's available
-res:imult                  1 # total number of integer multiplier/dividers available
-res:memport                2 # total number of memory system ports available (to CPU)
-res:fpalu                  4 # total number of floating point ALU's available
-res:fpmult                 1 # total number of floating point multiplier/dividers available
# -pcstat              <null> # profile stat(s) against text addr's (mult uses ok)
-bugcompat              false # operate in backward-compatible bugs mode (for testing only)

  Pipetrace range arguments are formatted as follows:

    {{@|#}<start>}:{{@|#|+}<end>}

  Both ends of the range are optional, if neither are specified, the entire
  execution is traced.  Ranges that start with a `@' designate an address
  range to be traced, those that start with an `#' designate a cycle count
  range.  All other range values represent an instruction count range.  The
  second argument, if specified with a `+', indicates a value relative
  to the first argument, e.g., 1000:+100 == 1000:1100.  Program symbols may
  be used in all contexts.

    Examples:   -ptrace FOO.trc #0:#1000
                -ptrace BAR.trc @2000:
                -ptrace BLAH.trc :1500
                -ptrace UXXE.trc :
                -ptrace FOOBAR.trc @main:+278

  Branch predictor configuration examples for 2-level predictor:
    Configurations:   N, M, W, X
      N   # entries in first level (# of shift register(s))
      W   width of shift register(s)
      M   # entries in 2nd level (# of counters, or other FSM)
      X   (yes-1/no-0) xor history and address for 2nd level index
    Sample predictors:
      GAg     : 1, W, 2^W, 0
      GAp     : 1, W, M (M > 2^W), 0
      PAg     : N, W, 2^W, 0
      PAp     : N, W, M (M == 2^(N+W)), 0
      gshare  : 1, W, 2^W, 1
  Predictor `comb' combines a bimodal and a 2-level predictor.

  The cache config parameter <config> has the following format:

    <name>:<nsets>:<bsize>:<assoc>:<repl>

    <name>   - name of the cache being defined
    <nsets>  - number of sets in the cache
    <bsize>  - block size of the cache
    <assoc>  - associativity of the cache
    <repl>   - block replacement strategy, 'l'-LRU, 'f'-FIFO, 'r'-random

    Examples:   -cache:dl1 dl1:4096:32:1:l
                -dtlb dtlb:128:4096:32:r

  Cache levels can be unified by pointing a level of the instruction cache
  hierarchy at the data cache hiearchy using the "dl1" and "dl2" cache
  configuration arguments.  Most sensible combinations are supported, e.g.,

    A unified l2 cache (il2 is pointed at dl2):
      -cache:il1 il1:128:64:1:l -cache:il2 dl2
      -cache:dl1 dl1:256:32:1:l -cache:dl2 ul2:1024:64:2:l

    Or, a fully unified cache hierarchy (il1 pointed at dl1):
      -cache:il1 dl1
      -cache:dl1 ul1:256:32:1:l -cache:dl2 ul2:1024:64:2:l



sim: ** starting performance simulation **

sim: ** simulation statistics **
sim_num_insn              100000000 # total number of instructions committed
sim_num_refs               48401868 # total number of loads and stores committed
sim_num_loads              29359945 # total number of loads committed
sim_num_stores         19041923.0000 # total number of stores committed
sim_num_branches           11497412 # total number of branches committed
sim_elapsed_time                124 # total simulation time in seconds
sim_inst_rate           806451.6129 # simulation speed (in insts/sec)
sim_total_insn            112014013 # total number of instructions executed
sim_total_refs             54419815 # total number of loads and stores executed
sim_total_loads            33377686 # total number of loads executed
sim_total_stores       21042129.0000 # total number of stores executed
sim_total_branches         12387072 # total number of branches executed
sim_cycle                  60855195 # total simulation time in cycles
sim_IPC                      1.6432 # instructions per cycle
sim_CPI                      0.6086 # cycles per instruction
sim_exec_BW                  1.8407 # total instructions (mis-spec + committed) per cycle
sim_IPB                      8.6976 # instruction per branch
IFQ_count                 201392672 # cumulative IFQ occupancy
IFQ_fcount                 47048491 # cumulative IFQ full count
ifq_occupancy                3.3094 # avg IFQ occupancy (insn's)
ifq_rate                     1.8407 # avg IFQ dispatch rate (insn/cycle)
ifq_latency                  1.7979 # avg IFQ occupant latency (cycle's)
ifq_full                     0.7731 # fraction of time (cycle's) IFQ was full
RUU_count                 689016156 # cumulative RUU occupancy
RUU_fcount                 16421848 # cumulative RUU full count
ruu_occupancy               11.3222 # avg RUU occupancy (insn's)
ruu_rate                     1.8407 # avg RUU dispatch rate (insn/cycle)
ruu_latency                  6.1512 # avg RUU occupant latency (cycle's)
ruu_full                     0.2699 # fraction of time (cycle's) RUU was full
LSQ_count                 314904397 # cumulative LSQ occupancy
LSQ_fcount                 19242053 # cumulative LSQ full count
lsq_occupancy                5.1747 # avg LSQ occupancy (insn's)
lsq_rate                     1.8407 # avg LSQ dispatch rate (insn/cycle)
lsq_latency                  2.8113 # avg LSQ occupant latency (cycle's)
lsq_full                     0.3162 # fraction of time (cycle's) LSQ was full
sim_slip                 1094153631 # total number of slip cycles
avg_sim_slip                10.9415 # the average slip between issue and retirement
bpred_2lev.lookups         13257352 # total number of bpred lookups
bpred_2lev.updates         11497411 # total number of updates
bpred_2lev.addr_hits        9656551 # total number of address-predicted hits
bpred_2lev.dir_hits         9996233 # total number of direction-predicted hits (includes addr-hits)
bpred_2lev.misses           1501178 # total number of misses
bpred_2lev.jr_hits          2160765 # total number of address-predicted hits for JR's
bpred_2lev.jr_seen          2500143 # total number of JR's seen
bpred_2lev.jr_non_ras_hits.PP       387501 # total number of address-predicted hits for non-RAS JR's
bpred_2lev.jr_non_ras_seen.PP       527808 # total number of non-RAS JR's seen
bpred_2lev.bpred_addr_rate    0.8399 # branch address-prediction rate (i.e., addr-hits/updates)
bpred_2lev.bpred_dir_rate    0.8694 # branch direction-prediction rate (i.e., all-hits/updates)
bpred_2lev.bpred_jr_rate    0.8643 # JR address-prediction rate (i.e., JR addr-hits/JRs seen)
bpred_2lev.bpred_jr_non_ras_rate.PP    0.7342 # non-RAS JR addr-pred rate (ie, non-RAS JR hits/JRs seen)
bpred_2lev.retstack_pushes      2043844 # total number of address pushed onto ret-addr stack
bpred_2lev.retstack_pops      2295740 # total number of address popped off of ret-addr stack
bpred_2lev.used_ras.PP      1972335 # total number of RAS predictions used
bpred_2lev.ras_hits.PP      1773264 # total number of RAS hits
bpred_2lev.ras_rate.PP    0.8991 # RAS prediction rate (i.e., RAS hits/used RAS)
il1.accesses              118701413 # total number of accesses
il1.hits                  117645994 # total number of hits
il1.misses                  1055419 # total number of misses
il1.replacements            1055163 # total number of replacements
il1.writebacks                    0 # total number of writebacks
il1.invalidations                 0 # total number of invalidations
il1.miss_rate                0.0089 # miss rate (i.e., misses/ref)
il1.repl_rate                0.0089 # replacement rate (i.e., repls/ref)
il1.wb_rate                  0.0000 # writeback rate (i.e., wrbks/ref)
il1.inv_rate                 0.0000 # invalidation rate (i.e., invs/ref)
dl1.accesses               49365454 # total number of accesses
dl1.hits                   48960787 # total number of hits
dl1.misses                   404667 # total number of misses
dl1.replacements             404411 # total number of replacements
dl1.writebacks               100239 # total number of writebacks
dl1.invalidations                 0 # total number of invalidations
dl1.miss_rate                0.0082 # miss rate (i.e., misses/ref)
dl1.repl_rate                0.0082 # replacement rate (i.e., repls/ref)
dl1.wb_rate                  0.0020 # writeback rate (i.e., wrbks/ref)
dl1.inv_rate                 0.0000 # invalidation rate (i.e., invs/ref)
dl2.accesses                1560325 # total number of accesses
dl2.hits                    1558822 # total number of hits
dl2.misses                     1503 # total number of misses
dl2.replacements                100 # total number of replacements
dl2.writebacks                   19 # total number of writebacks
dl2.invalidations                 0 # total number of invalidations
dl2.miss_rate                0.0010 # miss rate (i.e., misses/ref)
dl2.repl_rate                0.0001 # replacement rate (i.e., repls/ref)
dl2.wb_rate                  0.0000 # writeback rate (i.e., wrbks/ref)
dl2.inv_rate                 0.0000 # invalidation rate (i.e., invs/ref)
itlb.accesses             118701413 # total number of accesses
itlb.hits                 118701358 # total number of hits
itlb.misses                      55 # total number of misses
itlb.replacements                 8 # total number of replacements
itlb.writebacks                   0 # total number of writebacks
itlb.invalidations                0 # total number of invalidations
itlb.miss_rate               0.0000 # miss rate (i.e., misses/ref)
itlb.repl_rate               0.0000 # replacement rate (i.e., repls/ref)
itlb.wb_rate                 0.0000 # writeback rate (i.e., wrbks/ref)
itlb.inv_rate                0.0000 # invalidation rate (i.e., invs/ref)
dtlb.accesses              49823924 # total number of accesses
dtlb.hits                  49823866 # total number of hits
dtlb.misses                      58 # total number of misses
dtlb.replacements                 0 # total number of replacements
dtlb.writebacks                   0 # total number of writebacks
dtlb.invalidations                0 # total number of invalidations
dtlb.miss_rate               0.0000 # miss rate (i.e., misses/ref)
dtlb.repl_rate               0.0000 # replacement rate (i.e., repls/ref)
dtlb.wb_rate                 0.0000 # writeback rate (i.e., wrbks/ref)
dtlb.inv_rate                0.0000 # invalidation rate (i.e., invs/ref)
rename_power           25435371.1940 # total power usage of rename unit
bpred_power            203265523.0249 # total power usage of bpred unit
window_power           134144288.0041 # total power usage of instruction window
lsq_power              58614506.0274 # total power usage of load/store queue
regfile_power          217403486.4508 # total power usage of arch. regfile
icache_power           184547216.2349 # total power usage of icache
dcache_power           391828087.6740 # total power usage of dcache
dcache2_power          188832256.4086 # total power usage of dcache2
alu_power              1152668924.5080 # total power usage of alu
falu_power             869075775.7064 # total power usage of falu
resultbus_power        139817420.3615 # total power usage of resultbus
clock_power            1662307187.3683 # total power usage of clock
avg_rename_power             0.4180 # avg power usage of rename unit
avg_bpred_power              3.3402 # avg power usage of bpred unit
avg_window_power             2.2043 # avg power usage of instruction window
avg_lsq_power                0.9632 # avg power usage of lsq
avg_regfile_power            3.5725 # avg power usage of arch. regfile
avg_icache_power             3.0326 # avg power usage of icache
avg_dcache_power             6.4387 # avg power usage of dcache
avg_dcache2_power            3.1030 # avg power usage of dcache2
avg_alu_power               18.9412 # avg power usage of alu
avg_falu_power              14.2810 # avg power usage of falu
avg_resultbus_power          2.2975 # avg power usage of resultbus
avg_clock_power             27.3158 # avg power usage of clock
fetch_stage_power      387812739.2598 # total power usage of fetch stage
dispatch_stage_power   25435371.1940 # total power usage of dispatch stage
issue_stage_power      2065905482.9837 # total power usage of issue stage
avg_fetch_power              6.3727 # average power of fetch unit per cycle
avg_dispatch_power           0.4180 # average power of dispatch unit per cycle
avg_issue_power             33.9479 # average power of issue unit per cycle
total_power            4358864267.2567 # total power per cycle
avg_total_power_cycle       71.6268 # average total power per cycle
avg_total_power_cycle_nofp_nod2      54.2428 # average total power per cycle
avg_total_power_insn        38.9136 # average total power per insn
avg_total_power_insn_nofp_nod2      29.4691 # average total power per insn
rename_power_cc1       16470877.5300 # total power usage of rename unit_cc1
bpred_power_cc1        35611681.5263 # total power usage of bpred unit_cc1
window_power_cc1       112981771.7481 # total power usage of instruction window_cc1
lsq_power_cc1          16554075.6114 # total power usage of lsq_cc1
regfile_power_cc1      136471351.0534 # total power usage of arch. regfile_cc1
icache_power_cc1       127978072.9974 # total power usage of icache_cc1
dcache_power_cc1       203287480.4554 # total power usage of dcache_cc1
dcache2_power_cc1      4462811.3493 # total power usage of dcache2_cc1
alu_power_cc1          356181162.3317 # total power usage of alu_cc1
resultbus_power_cc1    100659333.0168 # total power usage of resultbus_cc1
clock_power_cc1        728789357.1698 # total power usage of clock_cc1
avg_rename_power_cc1         0.2707 # avg power usage of rename unit_cc1
avg_bpred_power_cc1          0.5852 # avg power usage of bpred unit_cc1
avg_window_power_cc1         1.8566 # avg power usage of instruction window_cc1
avg_lsq_power_cc1            0.2720 # avg power usage of lsq_cc1
avg_regfile_power_cc1        2.2426 # avg power usage of arch. regfile_cc1
avg_icache_power_cc1         2.1030 # avg power usage of icache_cc1
avg_dcache_power_cc1         3.3405 # avg power usage of dcache_cc1
avg_dcache2_power_cc1        0.0733 # avg power usage of dcache2_cc1
avg_alu_power_cc1            5.8529 # avg power usage of alu_cc1
avg_resultbus_power_cc1       1.6541 # avg power usage of resultbus_cc1
avg_clock_power_cc1         11.9758 # avg power usage of clock_cc1
fetch_stage_power_cc1  163589754.5238 # total power usage of fetch stage_cc1
dispatch_stage_power_cc1 16470877.5300 # total power usage of dispatch stage_cc1
issue_stage_power_cc1  794126634.5127 # total power usage of issue stage_cc1
avg_fetch_power_cc1          2.6882 # average power of fetch unit per cycle_cc1
avg_dispatch_power_cc1       0.2707 # average power of dispatch unit per cycle_cc1
avg_issue_power_cc1         13.0494 # average power of issue unit per cycle_cc1
total_power_cycle_cc1  1839447974.7896 # total power per cycle_cc1
avg_total_power_cycle_cc1      30.2266 # average total power per cycle_cc1
avg_total_power_insn_cc1      16.4216 # average total power per insn_cc1
rename_power_cc2       11704497.5509 # total power usage of rename unit_cc2
bpred_power_cc2        19201542.7799 # total power usage of bpred unit_cc2
window_power_cc2       88748109.5469 # total power usage of instruction window_cc2
lsq_power_cc2          11862066.5948 # total power usage of lsq_cc2
regfile_power_cc2      43947722.2602 # total power usage of arch. regfile_cc2
icache_power_cc2       127978072.9974 # total power usage of icache_cc2
dcache_power_cc2       158924570.3001 # total power usage of dcache_cc2
dcache2_power_cc2      2420826.1160 # total power usage of dcache2_cc2
alu_power_cc2          154552245.0853 # total power usage of alu_cc2
resultbus_power_cc2    66037553.1302 # total power usage of resultbus_cc2
clock_power_cc2        449818869.3396 # total power usage of clock_cc2
avg_rename_power_cc2         0.1923 # avg power usage of rename unit_cc2
avg_bpred_power_cc2          0.3155 # avg power usage of bpred unit_cc2
avg_window_power_cc2         1.4583 # avg power usage of instruction window_cc2
avg_lsq_power_cc2            0.1949 # avg power usage of instruction lsq_cc2
avg_regfile_power_cc2        0.7222 # avg power usage of arch. regfile_cc2
avg_icache_power_cc2         2.1030 # avg power usage of icache_cc2
avg_dcache_power_cc2         2.6115 # avg power usage of dcache_cc2
avg_dcache2_power_cc2        0.0398 # avg power usage of dcache2_cc2
avg_alu_power_cc2            2.5397 # avg power usage of alu_cc2
avg_resultbus_power_cc2       1.0852 # avg power usage of resultbus_cc2
avg_clock_power_cc2          7.3916 # avg power usage of clock_cc2
fetch_stage_power_cc2  147179615.7773 # total power usage of fetch stage_cc2
dispatch_stage_power_cc2 11704497.5509 # total power usage of dispatch stage_cc2
issue_stage_power_cc2  482545370.7733 # total power usage of issue stage_cc2
avg_fetch_power_cc2          2.4185 # average power of fetch unit per cycle_cc2
avg_dispatch_power_cc2       0.1923 # average power of dispatch unit per cycle_cc2
avg_issue_power_cc2          7.9294 # average power of issue unit per cycle_cc2
total_power_cycle_cc2  1135196075.7014 # total power per cycle_cc2
avg_total_power_cycle_cc2      18.6541 # average total power per cycle_cc2
avg_total_power_insn_cc2      10.1344 # average total power per insn_cc2
rename_power_cc3       12600946.9125 # total power usage of rename unit_cc3
bpred_power_cc3        35966926.9298 # total power usage of bpred unit_cc3
window_power_cc3       90284516.4883 # total power usage of instruction window_cc3
lsq_power_cc3          15994569.7841 # total power usage of lsq_cc3
regfile_power_cc3      49767813.4104 # total power usage of arch. regfile_cc3
icache_power_cc3       133634987.2858 # total power usage of icache_cc3
dcache_power_cc3       178984805.4318 # total power usage of dcache_cc3
dcache2_power_cc3      20859073.4036 # total power usage of dcache2_cc3
alu_power_cc3          234201020.9374 # total power usage of alu_cc3
resultbus_power_cc3    69364623.6238 # total power usage of resultbus_cc3
clock_power_cc3        541633730.7755 # total power usage of clock_cc3
avg_rename_power_cc3         0.2071 # avg power usage of rename unit_cc3
avg_bpred_power_cc3          0.5910 # avg power usage of bpred unit_cc3
avg_window_power_cc3         1.4836 # avg power usage of instruction window_cc3
avg_lsq_power_cc3            0.2628 # avg power usage of instruction lsq_cc3
avg_regfile_power_cc3        0.8178 # avg power usage of arch. regfile_cc3
avg_icache_power_cc3         2.1960 # avg power usage of icache_cc3
avg_dcache_power_cc3         2.9412 # avg power usage of dcache_cc3
avg_dcache2_power_cc3        0.3428 # avg power usage of dcache2_cc3
avg_alu_power_cc3            3.8485 # avg power usage of alu_cc3
avg_resultbus_power_cc3       1.1398 # avg power usage of resultbus_cc3
avg_clock_power_cc3          8.9004 # avg power usage of clock_cc3
fetch_stage_power_cc3  169601914.2156 # total power usage of fetch stage_cc3
dispatch_stage_power_cc3 12600946.9125 # total power usage of dispatch stage_cc3
issue_stage_power_cc3  609688609.6690 # total power usage of issue stage_cc3
avg_fetch_power_cc3          2.7870 # average power of fetch unit per cycle_cc3
avg_dispatch_power_cc3       0.2071 # average power of dispatch unit per cycle_cc3
avg_issue_power_cc3         10.0187 # average power of issue unit per cycle_cc3
total_power_cycle_cc3  1383293014.9829 # total power per cycle_cc3
avg_total_power_cycle_cc3      22.7309 # average total power per cycle_cc3
avg_total_power_insn_cc3      12.3493 # average total power per insn_cc3
total_rename_access       112014010 # total number accesses of rename unit
total_bpred_access         11497411 # total number accesses of bpred unit
total_window_access       434654929 # total number accesses of instruction window
total_lsq_access           50550444 # total number accesses of load/store queue
total_regfile_access      173839837 # total number accesses of arch. regfile
total_icache_access       118762650 # total number accesses of icache
total_dcache_access        49365454 # total number accesses of dcache
total_dcache2_access        1560325 # total number accesses of dcache2
total_alu_access          104405571 # total number accesses of alu
total_resultbus_access    122635459 # total number accesses of resultbus
avg_rename_access            1.8407 # avg number accesses of rename unit
avg_bpred_access             0.1889 # avg number accesses of bpred unit
avg_window_access            7.1424 # avg number accesses of instruction window
avg_lsq_access               0.8307 # avg number accesses of lsq
avg_regfile_access           2.8566 # avg number accesses of arch. regfile
avg_icache_access            1.9516 # avg number accesses of icache
avg_dcache_access            0.8112 # avg number accesses of dcache
avg_dcache2_access           0.0256 # avg number accesses of dcache2
avg_alu_access               1.7156 # avg number accesses of alu
avg_resultbus_access         2.0152 # avg number accesses of resultbus
max_rename_access                 4 # max number accesses of rename unit
max_bpred_access                  2 # max number accesses of bpred unit
max_window_access                18 # max number accesses of instruction window
max_lsq_access                    4 # max number accesses of load/store queue
max_regfile_access               12 # max number accesses of arch. regfile
max_icache_access                 4 # max number accesses of icache
max_dcache_access                 4 # max number accesses of dcache
max_dcache2_access                5 # max number accesses of dcache2
max_alu_access                    4 # max number accesses of alu
max_resultbus_access              8 # max number accesses of resultbus
max_cycle_power_cc1         59.1658 # maximum cycle power usage of cc1
max_cycle_power_cc2         37.2770 # maximum cycle power usage of cc2
max_cycle_power_cc3         39.6191 # maximum cycle power usage of cc3
sim_invalid_addrs                 0 # total non-speculative bogus addresses seen (debug var)
ld_text_base           0x0120000000 # program text (code) segment base
ld_text_size                 794624 # program text (code) size in bytes
ld_data_base           0x0140000000 # program initialized data segment base
ld_data_size                 216592 # program init'ed `.data' and uninit'ed `.bss' size in bytes
ld_stack_base          0x011ff9b000 # program stack segment base (highest address in stack)
ld_stack_size                 16384 # program initial stack size
ld_prog_entry          0x012009cb24 # program entry point (initial PC)
ld_environ_base        0x011ff955d0 # program environment base address address
ld_target_big_endian              0 # target executable endian-ness, non-zero if big endian
mem.page_count                  163 # total number of pages allocated
mem.page_mem                  1304k # total size of memory pages allocated
mem.ptab_misses              340480 # total first level page table misses
mem.ptab_accesses         914507264 # total page table accesses
mem.ptab_miss_rate           0.0004 # first level page table miss rate

