sim-outorder: SimpleScalar/Alpha Tool Set version 3.0 of August, 2003.
Copyright (c) 1994-2003 by Todd M. Austin, Ph.D. and SimpleScalar, LLC.
All Rights Reserved. This version of SimpleScalar is licensed for academic
non-commercial use.  No portion of this work may be used by any commercial
entity, or for any commercial purpose, without the prior written permission
of SimpleScalar, LLC (info@simplescalar.com).


Processor Parameters:
Issue Width: 4
Window Size: 16
Number of Virtual Registers: 32
Number of Physical Registers: 16
Datapath Width: 64
Total Power Consumption: 73.6268
Branch Predictor Power Consumption: 3.34015  (4.66%)
 branch target buffer power (W): 2.49493
 local predict power (W): 0.578433
 global predict power (W): 0.0996078
 chooser power (W): 0.0702439
 RAS power (W): 0.0969383
Rename Logic Power Consumption: 0.417965  (0.584%)
 Instruction Decode Power (W): 0.0159915
 RAT decode_power (W): 0.113514
 RAT wordline_power (W): 0.0307815
 RAT bitline_power (W): 0.246771
 DCL Comparators (W): 0.0109075
Instruction Window Power Consumption: 2.20432  (3.08%)
 tagdrive (W): 0.0943488
 tagmatch (W): 0.033695
 Selection Logic (W): 0.0134217
 decode_power (W): 0.0532503
 wordline_power (W): 0.0844643
 bitline_power (W): 1.92514
Load/Store Queue Power Consumption: 0.96318  (1.34%)
 tagdrive (W): 0.457232
 tagmatch (W): 0.100774
 decode_power (W): 0.00799577
 wordline_power (W): 0.0150119
 bitline_power (W): 0.382166
Arch. Register File Power Consumption: 3.57247  (4.99%)
 decode_power (W): 0.113514
 wordline_power (W): 0.0844643
 bitline_power (W): 3.37449
Result Bus Power Consumption: 2.29754  (3.21%)
Total Clock Power: 27.3158  (38.1%)
Int ALU Power: 4.66013  (6.51%)
FP ALU Power: 14.281  (19.9%)
Instruction Cache Power Consumption: 2.76773  (3.86%)
 decode_power (W): 0.151353
 wordline_power (W): 0.180479
 bitline_power (W): 1.42251
 senseamp_power (W): 0.768
 tagarray_power (W): 0.245382
Itlb_power (W): 0.264834 (0.37%)
Data Cache Power Consumption: 5.53546  (7.73%)
 decode_power (W): 0.302705
 wordline_power (W): 0.360958
 bitline_power (W): 2.84503
 senseamp_power (W): 1.536
 tagarray_power (W): 0.490764
Dtlb_power (W): 0.903238 (1.26%)
Level 2 Cache Power Consumption: 3.10298 (4.33%)
 decode_power (W): 0.19487
 wordline_power (W): 0.0430878
 bitline_power (W): 1.77274
 senseamp_power (W): 0.192
 tagarray_power (W): 0.900275
sim: loading EIO file: ../benchmarks/253.perlbmk.perfect-ref.eio.gz
sim: command line: ./sim-outorder -config ../configs/current.config ../benchmarks/253.perlbmk.perfect-ref.eio.gz 

sim: simulation started @ Mon Nov 23 20:17:14 2015, options follow:

sim-outorder: This simulator implements a very detailed out-of-order issue
superscalar processor with a two-level memory system and speculative
execution support.  This simulator is a performance simulator, tracking the
latency of all pipeline operations.

# -config                     # load configuration from a file
# -dumpconfig                 # dump configuration to a file
# -h                    false # print help message    
# -v                    false # verbose operation     
# -d                    false # enable debug message  
# -i                    false # start in Dlite debugger
-seed                       1 # random number generator seed (0 for timer seed)
# -q                    false # initialize and terminate immediately
# -chkpt               <null> # restore EIO trace execution from <fname>
# -redir:sim     ../results/09_04_2lbp/253.perlbmk.perfect-ref.eio.gz.out # redirect simulator output to file (non-interactive only)
# -redir:prog       /dev/null # redirect simulated program output to file
-nice                       0 # simulator scheduling priority
-freq            600000000.0000 # frequency             
-max:inst           100000000 # maximum number of inst's to execute
-fastfwd                    0 # number of insts skipped before timing starts
# -ptrace              <null> # generate pipetrace, i.e., <fname|stdout|stderr> <range>
-fetch:ifqsize              4 # instruction fetch queue size (in insts)
-fetch:mplat                3 # extra branch mis-prediction latency
-fetch:speed                1 # speed of front-end of machine relative to execution core
-bpred                   2lev # branch predictor type {nottaken|taken|perfect|bimod|2lev|comb}
-bpred:bimod     2048 # bimodal predictor config (<table size>)
-bpred:2lev      1 16384 16 0 # 2-level predictor config (<l1size> <l2size> <hist_size> <xor>)
-bpred:comb      1024 # combining predictor config (<meta_table_size>)
-bpred:ras                  8 # return address stack size (0 for no return stack)
-bpred:btb       512 4 # BTB config (<num_sets> <associativity>)
# -bpred:spec_update       <null> # speculative predictors update in {ID|WB} (default non-spec)
-decode:width               4 # instruction decode B/W (insts/cycle)
-issue:width                4 # instruction issue B/W (insts/cycle)
-issue:inorder          false # run pipeline with in-order issue
-issue:wrongpath         true # issue instructions down wrong execution paths
-commit:width               4 # instruction commit B/W (insts/cycle)
-ruu:size                  16 # register update unit (RUU) size
-lsq:size                   8 # load/store queue (LSQ) size
-cache:dl1       dl1:32:64:8:f # l1 data cache config, i.e., {<config>|none}
-cache:dl1lat               1 # l1 data cache hit latency (in cycles)
-cache:dl2       dl2:256:64:8:f # l2 data cache config, i.e., {<config>|none}
-cache:dl2lat               2 # l2 data cache hit latency (in cycles)
-cache:il1       il1:32:64:8:f # l1 inst cache config, i.e., {<config>|dl1|dl2|none}
-cache:il1lat               1 # l1 instruction cache hit latency (in cycles)
-cache:il2                dl2 # l2 instruction cache config, i.e., {<config>|dl2|none}
-cache:il2lat               2 # l2 instruction cache hit latency (in cycles)
-cache:flush            false # flush caches on system calls
-cache:icompress        false # convert 64-bit inst addresses to 32-bit inst equivalents
-mem:lat         103 1 # memory access latency (<first_chunk> <inter_chunk>)
-mem:width                  8 # memory access bus width (in bytes)
-tlb:itlb        itlb:16:4096:4:l # instruction TLB config, i.e., {<config>|none}
-tlb:dtlb        dtlb:32:4096:4:l # data TLB config, i.e., {<config>|none}
-tlb:lat                   30 # inst/data TLB miss latency (in cycles)
-res:ialu                   4 # total number of integer ALU's available
-res:imult                  1 # total number of integer multiplier/dividers available
-res:memport                2 # total number of memory system ports available (to CPU)
-res:fpalu                  4 # total number of floating point ALU's available
-res:fpmult                 1 # total number of floating point multiplier/dividers available
# -pcstat              <null> # profile stat(s) against text addr's (mult uses ok)
-bugcompat              false # operate in backward-compatible bugs mode (for testing only)

  Pipetrace range arguments are formatted as follows:

    {{@|#}<start>}:{{@|#|+}<end>}

  Both ends of the range are optional, if neither are specified, the entire
  execution is traced.  Ranges that start with a `@' designate an address
  range to be traced, those that start with an `#' designate a cycle count
  range.  All other range values represent an instruction count range.  The
  second argument, if specified with a `+', indicates a value relative
  to the first argument, e.g., 1000:+100 == 1000:1100.  Program symbols may
  be used in all contexts.

    Examples:   -ptrace FOO.trc #0:#1000
                -ptrace BAR.trc @2000:
                -ptrace BLAH.trc :1500
                -ptrace UXXE.trc :
                -ptrace FOOBAR.trc @main:+278

  Branch predictor configuration examples for 2-level predictor:
    Configurations:   N, M, W, X
      N   # entries in first level (# of shift register(s))
      W   width of shift register(s)
      M   # entries in 2nd level (# of counters, or other FSM)
      X   (yes-1/no-0) xor history and address for 2nd level index
    Sample predictors:
      GAg     : 1, W, 2^W, 0
      GAp     : 1, W, M (M > 2^W), 0
      PAg     : N, W, 2^W, 0
      PAp     : N, W, M (M == 2^(N+W)), 0
      gshare  : 1, W, 2^W, 1
  Predictor `comb' combines a bimodal and a 2-level predictor.

  The cache config parameter <config> has the following format:

    <name>:<nsets>:<bsize>:<assoc>:<repl>

    <name>   - name of the cache being defined
    <nsets>  - number of sets in the cache
    <bsize>  - block size of the cache
    <assoc>  - associativity of the cache
    <repl>   - block replacement strategy, 'l'-LRU, 'f'-FIFO, 'r'-random

    Examples:   -cache:dl1 dl1:4096:32:1:l
                -dtlb dtlb:128:4096:32:r

  Cache levels can be unified by pointing a level of the instruction cache
  hierarchy at the data cache hiearchy using the "dl1" and "dl2" cache
  configuration arguments.  Most sensible combinations are supported, e.g.,

    A unified l2 cache (il2 is pointed at dl2):
      -cache:il1 il1:128:64:1:l -cache:il2 dl2
      -cache:dl1 dl1:256:32:1:l -cache:dl2 ul2:1024:64:2:l

    Or, a fully unified cache hierarchy (il1 pointed at dl1):
      -cache:il1 dl1
      -cache:dl1 ul1:256:32:1:l -cache:dl2 ul2:1024:64:2:l



sim: ** starting performance simulation **

sim: ** simulation statistics **
sim_num_insn              100000000 # total number of instructions committed
sim_num_refs               46911509 # total number of loads and stores committed
sim_num_loads              35114075 # total number of loads committed
sim_num_stores         11797434.0000 # total number of stores committed
sim_num_branches           13244301 # total number of branches committed
sim_elapsed_time                168 # total simulation time in seconds
sim_inst_rate           595238.0952 # simulation speed (in insts/sec)
sim_total_insn            122982839 # total number of instructions executed
sim_total_refs             59821915 # total number of loads and stores executed
sim_total_loads            43155267 # total number of loads executed
sim_total_stores       16666648.0000 # total number of stores executed
sim_total_branches         14524250 # total number of branches executed
sim_cycle                  64564900 # total simulation time in cycles
sim_IPC                      1.5488 # instructions per cycle
sim_CPI                      0.6456 # cycles per instruction
sim_exec_BW                  1.9048 # total instructions (mis-spec + committed) per cycle
sim_IPB                      7.5504 # instruction per branch
IFQ_count                 192867406 # cumulative IFQ occupancy
IFQ_fcount                 44495150 # cumulative IFQ full count
ifq_occupancy                2.9872 # avg IFQ occupancy (insn's)
ifq_rate                     1.9048 # avg IFQ dispatch rate (insn/cycle)
ifq_latency                  1.5682 # avg IFQ occupant latency (cycle's)
ifq_full                     0.6892 # fraction of time (cycle's) IFQ was full
RUU_count                 643480238 # cumulative RUU occupancy
RUU_fcount                 10852569 # cumulative RUU full count
ruu_occupancy                9.9664 # avg RUU occupancy (insn's)
ruu_rate                     1.9048 # avg RUU dispatch rate (insn/cycle)
ruu_latency                  5.2323 # avg RUU occupant latency (cycle's)
ruu_full                     0.1681 # fraction of time (cycle's) RUU was full
LSQ_count                 310893642 # cumulative LSQ occupancy
LSQ_fcount                 16030431 # cumulative LSQ full count
lsq_occupancy                4.8152 # avg LSQ occupancy (insn's)
lsq_rate                     1.9048 # avg LSQ dispatch rate (insn/cycle)
lsq_latency                  2.5279 # avg LSQ occupant latency (cycle's)
lsq_full                     0.2483 # fraction of time (cycle's) LSQ was full
sim_slip                  989193703 # total number of slip cycles
avg_sim_slip                 9.8919 # the average slip between issue and retirement
bpred_2lev.lookups         15080739 # total number of bpred lookups
bpred_2lev.updates         13244301 # total number of updates
bpred_2lev.addr_hits        9154064 # total number of address-predicted hits
bpred_2lev.dir_hits        10211422 # total number of direction-predicted hits (includes addr-hits)
bpred_2lev.misses           3032879 # total number of misses
bpred_2lev.jr_hits          1168614 # total number of address-predicted hits for JR's
bpred_2lev.jr_seen          3283249 # total number of JR's seen
bpred_2lev.jr_non_ras_hits.PP       500834 # total number of address-predicted hits for non-RAS JR's
bpred_2lev.jr_non_ras_seen.PP      1558152 # total number of non-RAS JR's seen
bpred_2lev.bpred_addr_rate    0.6912 # branch address-prediction rate (i.e., addr-hits/updates)
bpred_2lev.bpred_dir_rate    0.7710 # branch direction-prediction rate (i.e., all-hits/updates)
bpred_2lev.bpred_jr_rate    0.3559 # JR address-prediction rate (i.e., JR addr-hits/JRs seen)
bpred_2lev.bpred_jr_non_ras_rate.PP    0.3214 # non-RAS JR addr-pred rate (ie, non-RAS JR hits/JRs seen)
bpred_2lev.retstack_pushes      2225962 # total number of address pushed onto ret-addr stack
bpred_2lev.retstack_pops      1780746 # total number of address popped off of ret-addr stack
bpred_2lev.used_ras.PP      1725097 # total number of RAS predictions used
bpred_2lev.ras_hits.PP       667780 # total number of RAS hits
bpred_2lev.ras_rate.PP    0.3871 # RAS prediction rate (i.e., RAS hits/used RAS)
il1.accesses              132888344 # total number of accesses
il1.hits                  132888260 # total number of hits
il1.misses                       84 # total number of misses
il1.replacements                  0 # total number of replacements
il1.writebacks                    0 # total number of writebacks
il1.invalidations                 0 # total number of invalidations
il1.miss_rate                0.0000 # miss rate (i.e., misses/ref)
il1.repl_rate                0.0000 # replacement rate (i.e., repls/ref)
il1.wb_rate                  0.0000 # writeback rate (i.e., wrbks/ref)
il1.inv_rate                 0.0000 # invalidation rate (i.e., invs/ref)
dl1.accesses               49860865 # total number of accesses
dl1.hits                   49860792 # total number of hits
dl1.misses                       73 # total number of misses
dl1.replacements                  0 # total number of replacements
dl1.writebacks                    0 # total number of writebacks
dl1.invalidations                 0 # total number of invalidations
dl1.miss_rate                0.0000 # miss rate (i.e., misses/ref)
dl1.repl_rate                0.0000 # replacement rate (i.e., repls/ref)
dl1.wb_rate                  0.0000 # writeback rate (i.e., wrbks/ref)
dl1.inv_rate                 0.0000 # invalidation rate (i.e., invs/ref)
dl2.accesses                    157 # total number of accesses
dl2.hits                          0 # total number of hits
dl2.misses                      157 # total number of misses
dl2.replacements                  0 # total number of replacements
dl2.writebacks                    0 # total number of writebacks
dl2.invalidations                 0 # total number of invalidations
dl2.miss_rate                1.0000 # miss rate (i.e., misses/ref)
dl2.repl_rate                0.0000 # replacement rate (i.e., repls/ref)
dl2.wb_rate                  0.0000 # writeback rate (i.e., wrbks/ref)
dl2.inv_rate                 0.0000 # invalidation rate (i.e., invs/ref)
itlb.accesses             132888344 # total number of accesses
itlb.hits                 132888333 # total number of hits
itlb.misses                      11 # total number of misses
itlb.replacements                 0 # total number of replacements
itlb.writebacks                   0 # total number of writebacks
itlb.invalidations                0 # total number of invalidations
itlb.miss_rate               0.0000 # miss rate (i.e., misses/ref)
itlb.repl_rate               0.0000 # replacement rate (i.e., repls/ref)
itlb.wb_rate                 0.0000 # writeback rate (i.e., wrbks/ref)
itlb.inv_rate                0.0000 # invalidation rate (i.e., invs/ref)
dtlb.accesses              50472987 # total number of accesses
dtlb.hits                  50472966 # total number of hits
dtlb.misses                      21 # total number of misses
dtlb.replacements                 0 # total number of replacements
dtlb.writebacks                   0 # total number of writebacks
dtlb.invalidations                0 # total number of invalidations
dtlb.miss_rate               0.0000 # miss rate (i.e., misses/ref)
dtlb.repl_rate               0.0000 # replacement rate (i.e., repls/ref)
dtlb.wb_rate                 0.0000 # writeback rate (i.e., wrbks/ref)
dtlb.inv_rate                0.0000 # invalidation rate (i.e., invs/ref)
rename_power           26985899.8497 # total power usage of rename unit
bpred_power            215656496.8291 # total power usage of bpred unit
window_power           142321662.7687 # total power usage of instruction window
lsq_power              62187619.6546 # total power usage of load/store queue
regfile_power          230656304.0458 # total power usage of arch. regfile
icache_power           195797130.5834 # total power usage of icache
dcache_power           415713749.6337 # total power usage of dcache
dcache2_power          200343384.8442 # total power usage of dcache2
alu_power              1222935097.8209 # total power usage of alu
falu_power             922054239.5998 # total power usage of falu
resultbus_power        148340626.7448 # total power usage of resultbus
clock_power            1763640677.1550 # total power usage of clock
avg_rename_power             0.4180 # avg power usage of rename unit
avg_bpred_power              3.3402 # avg power usage of bpred unit
avg_window_power             2.2043 # avg power usage of instruction window
avg_lsq_power                0.9632 # avg power usage of lsq
avg_regfile_power            3.5725 # avg power usage of arch. regfile
avg_icache_power             3.0326 # avg power usage of icache
avg_dcache_power             6.4387 # avg power usage of dcache
avg_dcache2_power            3.1030 # avg power usage of dcache2
avg_alu_power               18.9412 # avg power usage of alu
avg_falu_power              14.2810 # avg power usage of falu
avg_resultbus_power          2.2975 # avg power usage of resultbus
avg_clock_power             27.3158 # avg power usage of clock
fetch_stage_power      411453627.4125 # total power usage of fetch stage
dispatch_stage_power   26985899.8497 # total power usage of dispatch stage
issue_stage_power      2191842141.4669 # total power usage of issue stage
avg_fetch_power              6.3727 # average power of fetch unit per cycle
avg_dispatch_power           0.4180 # average power of dispatch unit per cycle
avg_issue_power             33.9479 # average power of issue unit per cycle
total_power            4624578649.9299 # total power per cycle
avg_total_power_cycle       71.6268 # average total power per cycle
avg_total_power_cycle_nofp_nod2      54.2428 # average total power per cycle
avg_total_power_insn        37.6034 # average total power per insn
avg_total_power_insn_nofp_nod2      28.4770 # average total power per insn
rename_power_cc1       17467556.3576 # total power usage of rename unit_cc1
bpred_power_cc1        41078152.1438 # total power usage of bpred unit_cc1
window_power_cc1       120656889.1083 # total power usage of instruction window_cc1
lsq_power_cc1          19585221.2757 # total power usage of lsq_cc1
regfile_power_cc1      157421128.7457 # total power usage of arch. regfile_cc1
icache_power_cc1       135343301.3584 # total power usage of icache_cc1
dcache_power_cc1       221431203.6600 # total power usage of dcache_cc1
dcache2_power_cc1          466.9980 # total power usage of dcache2_cc1
alu_power_cc1          228167884.7159 # total power usage of alu_cc1
resultbus_power_cc1    107577987.2834 # total power usage of resultbus_cc1
clock_power_cc1        694021736.8483 # total power usage of clock_cc1
avg_rename_power_cc1         0.2705 # avg power usage of rename unit_cc1
avg_bpred_power_cc1          0.6362 # avg power usage of bpred unit_cc1
avg_window_power_cc1         1.8688 # avg power usage of instruction window_cc1
avg_lsq_power_cc1            0.3033 # avg power usage of lsq_cc1
avg_regfile_power_cc1        2.4382 # avg power usage of arch. regfile_cc1
avg_icache_power_cc1         2.0962 # avg power usage of icache_cc1
avg_dcache_power_cc1         3.4296 # avg power usage of dcache_cc1
avg_dcache2_power_cc1        0.0000 # avg power usage of dcache2_cc1
avg_alu_power_cc1            3.5339 # avg power usage of alu_cc1
avg_resultbus_power_cc1       1.6662 # avg power usage of resultbus_cc1
avg_clock_power_cc1         10.7492 # avg power usage of clock_cc1
fetch_stage_power_cc1  176421453.5022 # total power usage of fetch stage_cc1
dispatch_stage_power_cc1 17467556.3576 # total power usage of dispatch stage_cc1
issue_stage_power_cc1  697419653.0413 # total power usage of issue stage_cc1
avg_fetch_power_cc1          2.7325 # average power of fetch unit per cycle_cc1
avg_dispatch_power_cc1       0.2705 # average power of dispatch unit per cycle_cc1
avg_issue_power_cc1         10.8018 # average power of issue unit per cycle_cc1
total_power_cycle_cc1  1742751528.4951 # total power per cycle_cc1
avg_total_power_cycle_cc1      26.9922 # average total power per cycle_cc1
avg_total_power_insn_cc1      14.1707 # average total power per insn_cc1
rename_power_cc2       12850645.5387 # total power usage of rename unit_cc2
bpred_power_cc2        22118980.7202 # total power usage of bpred unit_cc2
window_power_cc2       98481805.0026 # total power usage of instruction window_cc2
lsq_power_cc2          13063812.3022 # total power usage of lsq_cc2
regfile_power_cc2      38859973.1679 # total power usage of arch. regfile_cc2
icache_power_cc2       135343301.3584 # total power usage of icache_cc2
dcache_power_cc2       160519470.6719 # total power usage of dcache_cc2
dcache2_power_cc2          243.5837 # total power usage of dcache2_cc2
alu_power_cc2          131922964.0145 # total power usage of alu_cc2
resultbus_power_cc2    72832075.4628 # total power usage of resultbus_cc2
clock_power_cc2        453962417.3142 # total power usage of clock_cc2
avg_rename_power_cc2         0.1990 # avg power usage of rename unit_cc2
avg_bpred_power_cc2          0.3426 # avg power usage of bpred unit_cc2
avg_window_power_cc2         1.5253 # avg power usage of instruction window_cc2
avg_lsq_power_cc2            0.2023 # avg power usage of instruction lsq_cc2
avg_regfile_power_cc2        0.6019 # avg power usage of arch. regfile_cc2
avg_icache_power_cc2         2.0962 # avg power usage of icache_cc2
avg_dcache_power_cc2         2.4862 # avg power usage of dcache_cc2
avg_dcache2_power_cc2        0.0000 # avg power usage of dcache2_cc2
avg_alu_power_cc2            2.0433 # avg power usage of alu_cc2
avg_resultbus_power_cc2       1.1280 # avg power usage of resultbus_cc2
avg_clock_power_cc2          7.0311 # avg power usage of clock_cc2
fetch_stage_power_cc2  157462282.0786 # total power usage of fetch stage_cc2
dispatch_stage_power_cc2 12850645.5387 # total power usage of dispatch stage_cc2
issue_stage_power_cc2  476820371.0378 # total power usage of issue stage_cc2
avg_fetch_power_cc2          2.4388 # average power of fetch unit per cycle_cc2
avg_dispatch_power_cc2       0.1990 # average power of dispatch unit per cycle_cc2
avg_issue_power_cc2          7.3851 # average power of issue unit per cycle_cc2
total_power_cycle_cc2  1139955689.1372 # total power per cycle_cc2
avg_total_power_cycle_cc2      17.6560 # average total power per cycle_cc2
avg_total_power_insn_cc2       9.2692 # average total power per insn_cc2
rename_power_cc3       13802479.8824 # total power usage of rename unit_cc3
bpred_power_cc3        39576815.1887 # total power usage of bpred unit_cc3
window_power_cc3       100245248.7766 # total power usage of instruction window_cc3
lsq_power_cc3          17279606.6982 # total power usage of lsq_cc3
regfile_power_cc3      44192394.7238 # total power usage of arch. regfile_cc3
icache_power_cc3       141388684.2420 # total power usage of icache_cc3
dcache_power_cc3       180628493.7319 # total power usage of dcache_cc3
dcache2_power_cc3      20034535.5238 # total power usage of dcache2_cc3
alu_power_cc3          231399684.8830 # total power usage of alu_cc3
resultbus_power_cc3    76197545.4725 # total power usage of resultbus_cc3
clock_power_cc3        559290582.1106 # total power usage of clock_cc3
avg_rename_power_cc3         0.2138 # avg power usage of rename unit_cc3
avg_bpred_power_cc3          0.6130 # avg power usage of bpred unit_cc3
avg_window_power_cc3         1.5526 # avg power usage of instruction window_cc3
avg_lsq_power_cc3            0.2676 # avg power usage of instruction lsq_cc3
avg_regfile_power_cc3        0.6845 # avg power usage of arch. regfile_cc3
avg_icache_power_cc3         2.1899 # avg power usage of icache_cc3
avg_dcache_power_cc3         2.7976 # avg power usage of dcache_cc3
avg_dcache2_power_cc3        0.3103 # avg power usage of dcache2_cc3
avg_alu_power_cc3            3.5840 # avg power usage of alu_cc3
avg_resultbus_power_cc3       1.1802 # avg power usage of resultbus_cc3
avg_clock_power_cc3          8.6625 # avg power usage of clock_cc3
fetch_stage_power_cc3  180965499.4307 # total power usage of fetch stage_cc3
dispatch_stage_power_cc3 13802479.8824 # total power usage of dispatch stage_cc3
issue_stage_power_cc3  625785115.0860 # total power usage of issue stage_cc3
avg_fetch_power_cc3          2.8028 # average power of fetch unit per cycle_cc3
avg_dispatch_power_cc3       0.2138 # average power of dispatch unit per cycle_cc3
avg_issue_power_cc3          9.6923 # average power of issue unit per cycle_cc3
total_power_cycle_cc3  1424036071.2335 # total power per cycle_cc3
avg_total_power_cycle_cc3      22.0559 # average total power per cycle_cc3
avg_total_power_insn_cc3      11.5791 # average total power per insn_cc3
total_rename_access       122982839 # total number accesses of rename unit
total_bpred_access         13244301 # total number accesses of bpred unit
total_window_access       462966459 # total number accesses of instruction window
total_lsq_access           51975522 # total number accesses of load/store queue
total_regfile_access      148080198 # total number accesses of arch. regfile
total_icache_access       134529998 # total number accesses of icache
total_dcache_access        49860865 # total number accesses of dcache
total_dcache2_access            157 # total number accesses of dcache2
total_alu_access          111741897 # total number accesses of alu
total_resultbus_access    135253270 # total number accesses of resultbus
avg_rename_access            1.9048 # avg number accesses of rename unit
avg_bpred_access             0.2051 # avg number accesses of bpred unit
avg_window_access            7.1706 # avg number accesses of instruction window
avg_lsq_access               0.8050 # avg number accesses of lsq
avg_regfile_access           2.2935 # avg number accesses of arch. regfile
avg_icache_access            2.0836 # avg number accesses of icache
avg_dcache_access            0.7723 # avg number accesses of dcache
avg_dcache2_access           0.0000 # avg number accesses of dcache2
avg_alu_access               1.7307 # avg number accesses of alu
avg_resultbus_access         2.0948 # avg number accesses of resultbus
max_rename_access                 4 # max number accesses of rename unit
max_bpred_access                  2 # max number accesses of bpred unit
max_window_access                16 # max number accesses of instruction window
max_lsq_access                    4 # max number accesses of load/store queue
max_regfile_access                9 # max number accesses of arch. regfile
max_icache_access                 4 # max number accesses of icache
max_dcache_access                 4 # max number accesses of dcache
max_dcache2_access                3 # max number accesses of dcache2
max_alu_access                    4 # max number accesses of alu
max_resultbus_access              5 # max number accesses of resultbus
max_cycle_power_cc1         48.5937 # maximum cycle power usage of cc1
max_cycle_power_cc2         32.9601 # maximum cycle power usage of cc2
max_cycle_power_cc3         36.0582 # maximum cycle power usage of cc3
sim_invalid_addrs                 0 # total non-speculative bogus addresses seen (debug var)
ld_text_base           0x0120000000 # program text (code) segment base
ld_text_size                 876544 # program text (code) size in bytes
ld_data_base           0x0140000000 # program initialized data segment base
ld_data_size                 131616 # program init'ed `.data' and uninit'ed `.bss' size in bytes
ld_stack_base          0x011ff9b000 # program stack segment base (highest address in stack)
ld_stack_size                 16384 # program initial stack size
ld_prog_entry          0x012004d4ec # program entry point (initial PC)
ld_environ_base        0x011ff96b60 # program environment base address address
ld_target_big_endian              0 # target executable endian-ness, non-zero if big endian
mem.page_count                  186 # total number of pages allocated
mem.page_mem                  1488k # total size of memory pages allocated
mem.ptab_misses                 212 # total first level page table misses
mem.ptab_accesses         978005900 # total page table accesses
mem.ptab_miss_rate           0.0000 # first level page table miss rate

