sim-outorder: SimpleScalar/Alpha Tool Set version 3.0 of August, 2003.
Copyright (c) 1994-2003 by Todd M. Austin, Ph.D. and SimpleScalar, LLC.
All Rights Reserved. This version of SimpleScalar is licensed for academic
non-commercial use.  No portion of this work may be used by any commercial
entity, or for any commercial purpose, without the prior written permission
of SimpleScalar, LLC (info@simplescalar.com).


Processor Parameters:
Issue Width: 16
Window Size: 64
Number of Virtual Registers: 32
Number of Physical Registers: 64
Datapath Width: 64
Total Power Consumption: 226.278
Branch Predictor Power Consumption: 3.33649  (1.49%)
 branch target buffer power (W): 2.49493
 local predict power (W): 0.574771
 global predict power (W): 0.0996078
 chooser power (W): 0.0702439
 RAS power (W): 0.0969383
Rename Logic Power Consumption: 3.27072  (1.46%)
 Instruction Decode Power (W): 0.0639661
 RAT decode_power (W): 0.454058
 RAT wordline_power (W): 0.227603
 RAT bitline_power (W): 2.30694
 DCL Comparators (W): 0.218151
Instruction Window Power Consumption: 43.216  (19.3%)
 tagdrive (W): 2.9395
 tagmatch (W): 0.989695
 Selection Logic (W): 0.225484
 decode_power (W): 0.976583
 wordline_power (W): 1.0557
 bitline_power (W): 37.0291
Load/Store Queue Power Consumption: 3.89593  (1.74%)
 tagdrive (W): 0.980932
 tagmatch (W): 0.214942
 decode_power (W): 0.0159915
 wordline_power (W): 0.0433172
 bitline_power (W): 2.64075
Arch. Register File Power Consumption: 25.1387  (11.2%)
 decode_power (W): 0.454058
 wordline_power (W): 1.0557
 bitline_power (W): 23.629
Result Bus Power Consumption: 31.3281  (14%)
Total Clock Power: 61.856  (27.6%)
Int ALU Power: 4.66013  (2.08%)
FP ALU Power: 28.5621  (12.7%)
Instruction Cache Power Consumption: 2.76773  (1.23%)
 decode_power (W): 0.151353
 wordline_power (W): 0.180479
 bitline_power (W): 1.42251
 senseamp_power (W): 0.768
 tagarray_power (W): 0.245382
Itlb_power (W): 0.264936 (0.118%)
Data Cache Power Consumption: 11.0709  (4.94%)
 decode_power (W): 0.60541
 wordline_power (W): 0.721917
 bitline_power (W): 5.69006
 senseamp_power (W): 3.072
 tagarray_power (W): 0.981529
Dtlb_power (W): 1.80688 (0.806%)
Level 2 Cache Power Consumption: 3.10298 (1.38%)
 decode_power (W): 0.19487
 wordline_power (W): 0.0430878
 bitline_power (W): 1.77274
 senseamp_power (W): 0.192
 tagarray_power (W): 0.900275
sim: loading EIO file: ../benchmarks/164.gzip.program-ref.eio.gz
sim: command line: ./sim-outorder -config ../configs/current.config ../benchmarks/164.gzip.program-ref.eio.gz 

sim: simulation started @ Tue Nov 24 11:24:35 2015, options follow:

sim-outorder: This simulator implements a very detailed out-of-order issue
superscalar processor with a two-level memory system and speculative
execution support.  This simulator is a performance simulator, tracking the
latency of all pipeline operations.

# -config                     # load configuration from a file
# -dumpconfig                 # dump configuration to a file
# -h                    false # print help message    
# -v                    false # verbose operation     
# -d                    false # enable debug message  
# -i                    false # start in Dlite debugger
-seed                       1 # random number generator seed (0 for timer seed)
# -q                    false # initialize and terminate immediately
# -chkpt               <null> # restore EIO trace execution from <fname>
# -redir:sim     ../results/20_19_fus/164.gzip.program-ref.eio.gz.out # redirect simulator output to file (non-interactive only)
# -redir:prog       /dev/null # redirect simulated program output to file
-nice                       0 # simulator scheduling priority
-freq            600000000.0000 # frequency             
-max:inst           100000000 # maximum number of inst's to execute
-fastfwd                    0 # number of insts skipped before timing starts
# -ptrace              <null> # generate pipetrace, i.e., <fname|stdout|stderr> <range>
-fetch:ifqsize             16 # instruction fetch queue size (in insts)
-fetch:mplat               15 # extra branch mis-prediction latency
-fetch:speed                1 # speed of front-end of machine relative to execution core
-bpred                perfect # branch predictor type {nottaken|taken|perfect|bimod|2lev|comb}
-bpred:bimod     2048 # bimodal predictor config (<table size>)
-bpred:2lev      1 16384 4 0 # 2-level predictor config (<l1size> <l2size> <hist_size> <xor>)
-bpred:comb      1024 # combining predictor config (<meta_table_size>)
-bpred:ras                  8 # return address stack size (0 for no return stack)
-bpred:btb       512 4 # BTB config (<num_sets> <associativity>)
# -bpred:spec_update       <null> # speculative predictors update in {ID|WB} (default non-spec)
-decode:width              16 # instruction decode B/W (insts/cycle)
-issue:width               16 # instruction issue B/W (insts/cycle)
-issue:inorder          false # run pipeline with in-order issue
-issue:wrongpath         true # issue instructions down wrong execution paths
-commit:width              16 # instruction commit B/W (insts/cycle)
-ruu:size                  64 # register update unit (RUU) size
-lsq:size                   8 # load/store queue (LSQ) size
-cache:dl1       dl1:32:64:8:f # l1 data cache config, i.e., {<config>|none}
-cache:dl1lat               1 # l1 data cache hit latency (in cycles)
-cache:dl2       dl2:256:64:8:f # l2 data cache config, i.e., {<config>|none}
-cache:dl2lat               2 # l2 data cache hit latency (in cycles)
-cache:il1       il1:32:64:8:f # l1 inst cache config, i.e., {<config>|dl1|dl2|none}
-cache:il1lat               1 # l1 instruction cache hit latency (in cycles)
-cache:il2                dl2 # l2 instruction cache config, i.e., {<config>|dl2|none}
-cache:il2lat               2 # l2 instruction cache hit latency (in cycles)
-cache:flush            false # flush caches on system calls
-cache:icompress        false # convert 64-bit inst addresses to 32-bit inst equivalents
-mem:lat         103 1 # memory access latency (<first_chunk> <inter_chunk>)
-mem:width                  8 # memory access bus width (in bytes)
-tlb:itlb        itlb:16:4096:4:l # instruction TLB config, i.e., {<config>|none}
-tlb:dtlb        dtlb:32:4096:4:l # data TLB config, i.e., {<config>|none}
-tlb:lat                   30 # inst/data TLB miss latency (in cycles)
-res:ialu                   4 # total number of integer ALU's available
-res:imult                  2 # total number of integer multiplier/dividers available
-res:memport                4 # total number of memory system ports available (to CPU)
-res:fpalu                  8 # total number of floating point ALU's available
-res:fpmult                 2 # total number of floating point multiplier/dividers available
# -pcstat              <null> # profile stat(s) against text addr's (mult uses ok)
-bugcompat              false # operate in backward-compatible bugs mode (for testing only)

  Pipetrace range arguments are formatted as follows:

    {{@|#}<start>}:{{@|#|+}<end>}

  Both ends of the range are optional, if neither are specified, the entire
  execution is traced.  Ranges that start with a `@' designate an address
  range to be traced, those that start with an `#' designate a cycle count
  range.  All other range values represent an instruction count range.  The
  second argument, if specified with a `+', indicates a value relative
  to the first argument, e.g., 1000:+100 == 1000:1100.  Program symbols may
  be used in all contexts.

    Examples:   -ptrace FOO.trc #0:#1000
                -ptrace BAR.trc @2000:
                -ptrace BLAH.trc :1500
                -ptrace UXXE.trc :
                -ptrace FOOBAR.trc @main:+278

  Branch predictor configuration examples for 2-level predictor:
    Configurations:   N, M, W, X
      N   # entries in first level (# of shift register(s))
      W   width of shift register(s)
      M   # entries in 2nd level (# of counters, or other FSM)
      X   (yes-1/no-0) xor history and address for 2nd level index
    Sample predictors:
      GAg     : 1, W, 2^W, 0
      GAp     : 1, W, M (M > 2^W), 0
      PAg     : N, W, 2^W, 0
      PAp     : N, W, M (M == 2^(N+W)), 0
      gshare  : 1, W, 2^W, 1
  Predictor `comb' combines a bimodal and a 2-level predictor.

  The cache config parameter <config> has the following format:

    <name>:<nsets>:<bsize>:<assoc>:<repl>

    <name>   - name of the cache being defined
    <nsets>  - number of sets in the cache
    <bsize>  - block size of the cache
    <assoc>  - associativity of the cache
    <repl>   - block replacement strategy, 'l'-LRU, 'f'-FIFO, 'r'-random

    Examples:   -cache:dl1 dl1:4096:32:1:l
                -dtlb dtlb:128:4096:32:r

  Cache levels can be unified by pointing a level of the instruction cache
  hierarchy at the data cache hiearchy using the "dl1" and "dl2" cache
  configuration arguments.  Most sensible combinations are supported, e.g.,

    A unified l2 cache (il2 is pointed at dl2):
      -cache:il1 il1:128:64:1:l -cache:il2 dl2
      -cache:dl1 dl1:256:32:1:l -cache:dl2 ul2:1024:64:2:l

    Or, a fully unified cache hierarchy (il1 pointed at dl1):
      -cache:il1 dl1
      -cache:dl1 ul1:256:32:1:l -cache:dl2 ul2:1024:64:2:l



sim: ** starting performance simulation **

sim: ** simulation statistics **
sim_num_insn              100000001 # total number of instructions committed
sim_num_refs               27833169 # total number of loads and stores committed
sim_num_loads              24827756 # total number of loads committed
sim_num_stores         3005413.0000 # total number of stores committed
sim_num_branches           13041101 # total number of branches committed
sim_elapsed_time                 96 # total simulation time in seconds
sim_inst_rate          1041666.6771 # simulation speed (in insts/sec)
sim_total_insn            100000001 # total number of instructions executed
sim_total_refs             27833169 # total number of loads and stores executed
sim_total_loads            24827756 # total number of loads executed
sim_total_stores       3005413.0000 # total number of stores executed
sim_total_branches         13041101 # total number of branches executed
sim_cycle                  51260871 # total simulation time in cycles
sim_IPC                      1.9508 # instructions per cycle
sim_CPI                      0.5126 # cycles per instruction
sim_exec_BW                  1.9508 # total instructions (mis-spec + committed) per cycle
sim_IPB                      7.6681 # instruction per branch
IFQ_count                 819873644 # cumulative IFQ occupancy
IFQ_fcount                 51241731 # cumulative IFQ full count
ifq_occupancy               15.9941 # avg IFQ occupancy (insn's)
ifq_rate                     1.9508 # avg IFQ dispatch rate (insn/cycle)
ifq_latency                  8.1987 # avg IFQ occupant latency (cycle's)
ifq_full                     0.9996 # fraction of time (cycle's) IFQ was full
RUU_count                1305897454 # cumulative RUU occupancy
RUU_fcount                     4880 # cumulative RUU full count
ruu_occupancy               25.4755 # avg RUU occupancy (insn's)
ruu_rate                     1.9508 # avg RUU dispatch rate (insn/cycle)
ruu_latency                 13.0590 # avg RUU occupant latency (cycle's)
ruu_full                     0.0001 # fraction of time (cycle's) RUU was full
LSQ_count                 390090375 # cumulative LSQ occupancy
LSQ_fcount                 42603213 # cumulative LSQ full count
lsq_occupancy                7.6099 # avg LSQ occupancy (insn's)
lsq_rate                     1.9508 # avg LSQ dispatch rate (insn/cycle)
lsq_latency                  3.9009 # avg LSQ occupant latency (cycle's)
lsq_full                     0.8311 # fraction of time (cycle's) LSQ was full
sim_slip                 1823820824 # total number of slip cycles
avg_sim_slip                18.2382 # the average slip between issue and retirement
il1.accesses              196475146 # total number of accesses
il1.hits                  196474972 # total number of hits
il1.misses                      174 # total number of misses
il1.replacements                  0 # total number of replacements
il1.writebacks                    0 # total number of writebacks
il1.invalidations                 0 # total number of invalidations
il1.miss_rate                0.0000 # miss rate (i.e., misses/ref)
il1.repl_rate                0.0000 # replacement rate (i.e., repls/ref)
il1.wb_rate                  0.0000 # writeback rate (i.e., wrbks/ref)
il1.inv_rate                 0.0000 # invalidation rate (i.e., invs/ref)
dl1.accesses               27776736 # total number of accesses
dl1.hits                   23341079 # total number of hits
dl1.misses                  4435657 # total number of misses
dl1.replacements            4435401 # total number of replacements
dl1.writebacks               348352 # total number of writebacks
dl1.invalidations                 0 # total number of invalidations
dl1.miss_rate                0.1597 # miss rate (i.e., misses/ref)
dl1.repl_rate                0.1597 # replacement rate (i.e., repls/ref)
dl1.wb_rate                  0.0125 # writeback rate (i.e., wrbks/ref)
dl1.inv_rate                 0.0000 # invalidation rate (i.e., invs/ref)
dl2.accesses                4784183 # total number of accesses
dl2.hits                    4605776 # total number of hits
dl2.misses                   178407 # total number of misses
dl2.replacements             176359 # total number of replacements
dl2.writebacks                74699 # total number of writebacks
dl2.invalidations                 0 # total number of invalidations
dl2.miss_rate                0.0373 # miss rate (i.e., misses/ref)
dl2.repl_rate                0.0369 # replacement rate (i.e., repls/ref)
dl2.wb_rate                  0.0156 # writeback rate (i.e., wrbks/ref)
dl2.inv_rate                 0.0000 # invalidation rate (i.e., invs/ref)
itlb.accesses             196475146 # total number of accesses
itlb.hits                 196475137 # total number of hits
itlb.misses                       9 # total number of misses
itlb.replacements                 0 # total number of replacements
itlb.writebacks                   0 # total number of writebacks
itlb.invalidations                0 # total number of invalidations
itlb.miss_rate               0.0000 # miss rate (i.e., misses/ref)
itlb.repl_rate               0.0000 # replacement rate (i.e., repls/ref)
itlb.wb_rate                 0.0000 # writeback rate (i.e., wrbks/ref)
itlb.inv_rate                0.0000 # invalidation rate (i.e., invs/ref)
dtlb.accesses              27833161 # total number of accesses
dtlb.hits                  27833006 # total number of hits
dtlb.misses                     155 # total number of misses
dtlb.replacements                32 # total number of replacements
dtlb.writebacks                   0 # total number of writebacks
dtlb.invalidations                0 # total number of invalidations
dtlb.miss_rate               0.0000 # miss rate (i.e., misses/ref)
dtlb.repl_rate               0.0000 # replacement rate (i.e., repls/ref)
dtlb.wb_rate                 0.0000 # writeback rate (i.e., wrbks/ref)
dtlb.inv_rate                0.0000 # invalidation rate (i.e., invs/ref)
rename_power           167659880.0145 # total power usage of rename unit
bpred_power            171031307.4031 # total power usage of bpred unit
window_power           2215291320.1210 # total power usage of instruction window
lsq_power              199708683.8180 # total power usage of load/store queue
regfile_power          1288633845.8894 # total power usage of arch. regfile
icache_power           155457007.9254 # total power usage of icache
dcache_power           660127045.9103 # total power usage of dcache
dcache2_power          159061291.9203 # total power usage of dcache2
alu_power              1702999952.3770 # total power usage of alu
falu_power             1464117606.6027 # total power usage of falu
resultbus_power        1605906521.0935 # total power usage of resultbus
clock_power            3170793947.3441 # total power usage of clock
avg_rename_power             3.2707 # avg power usage of rename unit
avg_bpred_power              3.3365 # avg power usage of bpred unit
avg_window_power            43.2160 # avg power usage of instruction window
avg_lsq_power                3.8959 # avg power usage of lsq
avg_regfile_power           25.1387 # avg power usage of arch. regfile
avg_icache_power             3.0327 # avg power usage of icache
avg_dcache_power            12.8778 # avg power usage of dcache
avg_dcache2_power            3.1030 # avg power usage of dcache2
avg_alu_power               33.2222 # avg power usage of alu
avg_falu_power              28.5621 # avg power usage of falu
avg_resultbus_power         31.3281 # avg power usage of resultbus
avg_clock_power             61.8560 # avg power usage of clock
fetch_stage_power      326488315.3285 # total power usage of fetch stage
dispatch_stage_power   167659880.0145 # total power usage of dispatch stage
issue_stage_power      6543094815.2400 # total power usage of issue stage
avg_fetch_power              6.3692 # average power of fetch unit per cycle
avg_dispatch_power           3.2707 # average power of dispatch unit per cycle
avg_issue_power            127.6431 # average power of issue unit per cycle
total_power            11496670803.8164 # total power per cycle
avg_total_power_cycle      224.2777 # average total power per cycle
avg_total_power_cycle_nofp_nod2     192.6126 # average total power per cycle
avg_total_power_insn       114.9667 # average total power per insn
avg_total_power_insn_nofp_nod2      98.7349 # average total power per insn
rename_power_cc1       75031336.0475 # total power usage of rename unit_cc1
bpred_power_cc1              0.0000 # total power usage of bpred unit_cc1
window_power_cc1       1364858040.5827 # total power usage of instruction window_cc1
lsq_power_cc1          27111348.4991 # total power usage of lsq_cc1
regfile_power_cc1      691469738.5364 # total power usage of arch. regfile_cc1
icache_power_cc1       69570280.9725 # total power usage of icache_cc1
dcache_power_cc1       244937745.7486 # total power usage of dcache_cc1
dcache2_power_cc1      13672763.6896 # total power usage of dcache2_cc1
alu_power_cc1          155550149.5759 # total power usage of alu_cc1
resultbus_power_cc1    1010598248.8202 # total power usage of resultbus_cc1
clock_power_cc1        1453751760.7607 # total power usage of clock_cc1
avg_rename_power_cc1         1.4637 # avg power usage of rename unit_cc1
avg_bpred_power_cc1          0.0000 # avg power usage of bpred unit_cc1
avg_window_power_cc1        26.6257 # avg power usage of instruction window_cc1
avg_lsq_power_cc1            0.5289 # avg power usage of lsq_cc1
avg_regfile_power_cc1       13.4892 # avg power usage of arch. regfile_cc1
avg_icache_power_cc1         1.3572 # avg power usage of icache_cc1
avg_dcache_power_cc1         4.7783 # avg power usage of dcache_cc1
avg_dcache2_power_cc1        0.2667 # avg power usage of dcache2_cc1
avg_alu_power_cc1            3.0345 # avg power usage of alu_cc1
avg_resultbus_power_cc1      19.7148 # avg power usage of resultbus_cc1
avg_clock_power_cc1         28.3599 # avg power usage of clock_cc1
fetch_stage_power_cc1  69570280.9725 # total power usage of fetch stage_cc1
dispatch_stage_power_cc1 75031336.0475 # total power usage of dispatch stage_cc1
issue_stage_power_cc1  2816728296.9162 # total power usage of issue stage_cc1
avg_fetch_power_cc1          1.3572 # average power of fetch unit per cycle_cc1
avg_dispatch_power_cc1       1.4637 # average power of dispatch unit per cycle_cc1
avg_issue_power_cc1         54.9489 # average power of issue unit per cycle_cc1
total_power_cycle_cc1  5106551413.2333 # total power per cycle_cc1
avg_total_power_cycle_cc1      99.6189 # average total power per cycle_cc1
avg_total_power_insn_cc1      51.0655 # average total power per insn_cc1
rename_power_cc2       20441990.9588 # total power usage of rename unit_cc2
bpred_power_cc2              0.0000 # total power usage of bpred unit_cc2
window_power_cc2       387882878.6756 # total power usage of instruction window_cc2
lsq_power_cc2          9290265.7623 # total power usage of lsq_cc2
regfile_power_cc2      67906896.3538 # total power usage of arch. regfile_cc2
icache_power_cc2       69570280.9725 # total power usage of icache_cc2
dcache_power_cc2       89425785.7273 # total power usage of dcache_cc2
dcache2_power_cc2      3711302.1809 # total power usage of dcache2_cc2
alu_power_cc2          116494684.4020 # total power usage of alu_cc2
resultbus_power_cc2    205199117.1875 # total power usage of resultbus_cc2
clock_power_cc2        385260649.5332 # total power usage of clock_cc2
avg_rename_power_cc2         0.3988 # avg power usage of rename unit_cc2
avg_bpred_power_cc2          0.0000 # avg power usage of bpred unit_cc2
avg_window_power_cc2         7.5668 # avg power usage of instruction window_cc2
avg_lsq_power_cc2            0.1812 # avg power usage of instruction lsq_cc2
avg_regfile_power_cc2        1.3247 # avg power usage of arch. regfile_cc2
avg_icache_power_cc2         1.3572 # avg power usage of icache_cc2
avg_dcache_power_cc2         1.7445 # avg power usage of dcache_cc2
avg_dcache2_power_cc2        0.0724 # avg power usage of dcache2_cc2
avg_alu_power_cc2            2.2726 # avg power usage of alu_cc2
avg_resultbus_power_cc2       4.0030 # avg power usage of resultbus_cc2
avg_clock_power_cc2          7.5157 # avg power usage of clock_cc2
fetch_stage_power_cc2  69570280.9725 # total power usage of fetch stage_cc2
dispatch_stage_power_cc2 20441990.9588 # total power usage of dispatch stage_cc2
issue_stage_power_cc2  812004033.9356 # total power usage of issue stage_cc2
avg_fetch_power_cc2          1.3572 # average power of fetch unit per cycle_cc2
avg_dispatch_power_cc2       0.3988 # average power of dispatch unit per cycle_cc2
avg_issue_power_cc2         15.8406 # average power of issue unit per cycle_cc2
total_power_cycle_cc2  1355183851.7539 # total power per cycle_cc2
avg_total_power_cycle_cc2      26.4370 # average total power per cycle_cc2
avg_total_power_insn_cc2      13.5518 # average total power per insn_cc2
rename_power_cc3       29704845.3912 # total power usage of rename unit_cc3
bpred_power_cc3        17103130.7385 # total power usage of bpred unit_cc3
window_power_cc3       459256203.9823 # total power usage of instruction window_cc3
lsq_power_cc3          26490678.5745 # total power usage of lsq_cc3
regfile_power_cc3      120158167.6555 # total power usage of arch. regfile_cc3
icache_power_cc3       78158953.7143 # total power usage of icache_cc3
dcache_power_cc3       131011421.7732 # total power usage of dcache_cc3
dcache2_power_cc3      18250156.7946 # total power usage of dcache2_cc3
alu_power_cc3          271239664.3142 # total power usage of alu_cc3
resultbus_power_cc3    257992622.4580 # total power usage of resultbus_cc3
clock_power_cc3        545786912.9777 # total power usage of clock_cc3
avg_rename_power_cc3         0.5795 # avg power usage of rename unit_cc3
avg_bpred_power_cc3          0.3336 # avg power usage of bpred unit_cc3
avg_window_power_cc3         8.9592 # avg power usage of instruction window_cc3
avg_lsq_power_cc3            0.5168 # avg power usage of instruction lsq_cc3
avg_regfile_power_cc3        2.3441 # avg power usage of arch. regfile_cc3
avg_icache_power_cc3         1.5247 # avg power usage of icache_cc3
avg_dcache_power_cc3         2.5558 # avg power usage of dcache_cc3
avg_dcache2_power_cc3        0.3560 # avg power usage of dcache2_cc3
avg_alu_power_cc3            5.2914 # avg power usage of alu_cc3
avg_resultbus_power_cc3       5.0329 # avg power usage of resultbus_cc3
avg_clock_power_cc3         10.6472 # avg power usage of clock_cc3
fetch_stage_power_cc3  95262084.4528 # total power usage of fetch stage_cc3
dispatch_stage_power_cc3 29704845.3912 # total power usage of dispatch stage_cc3
issue_stage_power_cc3  1164240747.8968 # total power usage of issue stage_cc3
avg_fetch_power_cc3          1.8584 # average power of fetch unit per cycle_cc3
avg_dispatch_power_cc3       0.5795 # average power of dispatch unit per cycle_cc3
avg_issue_power_cc3         22.7121 # average power of issue unit per cycle_cc3
total_power_cycle_cc3  1955152758.3740 # total power per cycle_cc3
avg_total_power_cycle_cc3      38.1412 # average total power per cycle_cc3
avg_total_power_insn_cc3      19.5515 # average total power per insn_cc3
total_rename_access       100000001 # total number accesses of rename unit
total_bpred_access                0 # total number accesses of bpred unit
total_window_access       363839124 # total number accesses of instruction window
total_lsq_access           27889586 # total number accesses of load/store queue
total_regfile_access      143658569 # total number accesses of arch. regfile
total_icache_access       196475146 # total number accesses of icache
total_dcache_access        27776736 # total number accesses of dcache
total_dcache2_access        4784183 # total number accesses of dcache2
total_alu_access           99992638 # total number accesses of alu
total_resultbus_access    111786643 # total number accesses of resultbus
avg_rename_access            1.9508 # avg number accesses of rename unit
avg_bpred_access             0.0000 # avg number accesses of bpred unit
avg_window_access            7.0978 # avg number accesses of instruction window
avg_lsq_access               0.5441 # avg number accesses of lsq
avg_regfile_access           2.8025 # avg number accesses of arch. regfile
avg_icache_access            3.8328 # avg number accesses of icache
avg_dcache_access            0.5419 # avg number accesses of dcache
avg_dcache2_access           0.0933 # avg number accesses of dcache2
avg_alu_access               1.9507 # avg number accesses of alu
avg_resultbus_access         2.1807 # avg number accesses of resultbus
max_rename_access                16 # max number accesses of rename unit
max_bpred_access                  0 # max number accesses of bpred unit
max_window_access                36 # max number accesses of instruction window
max_lsq_access                    6 # max number accesses of load/store queue
max_regfile_access               31 # max number accesses of arch. regfile
max_icache_access                16 # max number accesses of icache
max_dcache_access                 7 # max number accesses of dcache
max_dcache2_access                6 # max number accesses of dcache2
max_alu_access                    6 # max number accesses of alu
max_resultbus_access              9 # max number accesses of resultbus
max_cycle_power_cc1        153.3961 # maximum cycle power usage of cc1
max_cycle_power_cc2         73.6070 # maximum cycle power usage of cc2
max_cycle_power_cc3         80.0929 # maximum cycle power usage of cc3
sim_invalid_addrs                 0 # total non-speculative bogus addresses seen (debug var)
ld_text_base           0x0120000000 # program text (code) segment base
ld_text_size                 212992 # program text (code) size in bytes
ld_data_base           0x0140000000 # program initialized data segment base
ld_data_size                 402416 # program init'ed `.data' and uninit'ed `.bss' size in bytes
ld_stack_base          0x011ff9b000 # program stack segment base (highest address in stack)
ld_stack_size                 16384 # program initial stack size
ld_prog_entry          0x01200119b4 # program entry point (initial PC)
ld_environ_base        0x011ff96ef0 # program environment base address address
ld_target_big_endian              0 # target executable endian-ness, non-zero if big endian
mem.page_count                23131 # total number of pages allocated
mem.page_mem                185048k # total size of memory pages allocated
mem.ptab_misses             3582058 # total first level page table misses
mem.ptab_accesses        1049902142 # total page table accesses
mem.ptab_miss_rate           0.0034 # first level page table miss rate

