sim-outorder: SimpleScalar/Alpha Tool Set version 3.0 of August, 2003.
Copyright (c) 1994-2003 by Todd M. Austin, Ph.D. and SimpleScalar, LLC.
All Rights Reserved. This version of SimpleScalar is licensed for academic
non-commercial use.  No portion of this work may be used by any commercial
entity, or for any commercial purpose, without the prior written permission
of SimpleScalar, LLC (info@simplescalar.com).


Processor Parameters:
Issue Width: 16
Window Size: 64
Number of Virtual Registers: 32
Number of Physical Registers: 64
Datapath Width: 64
Total Power Consumption: 226.278
Branch Predictor Power Consumption: 3.33649  (1.49%)
 branch target buffer power (W): 2.49493
 local predict power (W): 0.574771
 global predict power (W): 0.0996078
 chooser power (W): 0.0702439
 RAS power (W): 0.0969383
Rename Logic Power Consumption: 3.27072  (1.46%)
 Instruction Decode Power (W): 0.0639661
 RAT decode_power (W): 0.454058
 RAT wordline_power (W): 0.227603
 RAT bitline_power (W): 2.30694
 DCL Comparators (W): 0.218151
Instruction Window Power Consumption: 43.216  (19.3%)
 tagdrive (W): 2.9395
 tagmatch (W): 0.989695
 Selection Logic (W): 0.225484
 decode_power (W): 0.976583
 wordline_power (W): 1.0557
 bitline_power (W): 37.0291
Load/Store Queue Power Consumption: 3.89593  (1.74%)
 tagdrive (W): 0.980932
 tagmatch (W): 0.214942
 decode_power (W): 0.0159915
 wordline_power (W): 0.0433172
 bitline_power (W): 2.64075
Arch. Register File Power Consumption: 25.1387  (11.2%)
 decode_power (W): 0.454058
 wordline_power (W): 1.0557
 bitline_power (W): 23.629
Result Bus Power Consumption: 31.3281  (14%)
Total Clock Power: 61.856  (27.6%)
Int ALU Power: 4.66013  (2.08%)
FP ALU Power: 28.5621  (12.7%)
Instruction Cache Power Consumption: 2.76773  (1.23%)
 decode_power (W): 0.151353
 wordline_power (W): 0.180479
 bitline_power (W): 1.42251
 senseamp_power (W): 0.768
 tagarray_power (W): 0.245382
Itlb_power (W): 0.264936 (0.118%)
Data Cache Power Consumption: 11.0709  (4.94%)
 decode_power (W): 0.60541
 wordline_power (W): 0.721917
 bitline_power (W): 5.69006
 senseamp_power (W): 3.072
 tagarray_power (W): 0.981529
Dtlb_power (W): 1.80688 (0.806%)
Level 2 Cache Power Consumption: 3.10298 (1.38%)
 decode_power (W): 0.19487
 wordline_power (W): 0.0430878
 bitline_power (W): 1.77274
 senseamp_power (W): 0.192
 tagarray_power (W): 0.900275
sim: loading EIO file: ../benchmarks/175.vpr.route-ref.eio.gz
sim: command line: ./sim-outorder -config ../configs/current.config ../benchmarks/175.vpr.route-ref.eio.gz 

sim: simulation started @ Tue Nov 24 11:24:25 2015, options follow:

sim-outorder: This simulator implements a very detailed out-of-order issue
superscalar processor with a two-level memory system and speculative
execution support.  This simulator is a performance simulator, tracking the
latency of all pipeline operations.

# -config                     # load configuration from a file
# -dumpconfig                 # dump configuration to a file
# -h                    false # print help message    
# -v                    false # verbose operation     
# -d                    false # enable debug message  
# -i                    false # start in Dlite debugger
-seed                       1 # random number generator seed (0 for timer seed)
# -q                    false # initialize and terminate immediately
# -chkpt               <null> # restore EIO trace execution from <fname>
# -redir:sim     ../results/20_19_fus/175.vpr.route-ref.eio.gz.out # redirect simulator output to file (non-interactive only)
# -redir:prog       /dev/null # redirect simulated program output to file
-nice                       0 # simulator scheduling priority
-freq            600000000.0000 # frequency             
-max:inst           100000000 # maximum number of inst's to execute
-fastfwd                    0 # number of insts skipped before timing starts
# -ptrace              <null> # generate pipetrace, i.e., <fname|stdout|stderr> <range>
-fetch:ifqsize             16 # instruction fetch queue size (in insts)
-fetch:mplat               15 # extra branch mis-prediction latency
-fetch:speed                1 # speed of front-end of machine relative to execution core
-bpred                perfect # branch predictor type {nottaken|taken|perfect|bimod|2lev|comb}
-bpred:bimod     2048 # bimodal predictor config (<table size>)
-bpred:2lev      1 16384 4 0 # 2-level predictor config (<l1size> <l2size> <hist_size> <xor>)
-bpred:comb      1024 # combining predictor config (<meta_table_size>)
-bpred:ras                  8 # return address stack size (0 for no return stack)
-bpred:btb       512 4 # BTB config (<num_sets> <associativity>)
# -bpred:spec_update       <null> # speculative predictors update in {ID|WB} (default non-spec)
-decode:width              16 # instruction decode B/W (insts/cycle)
-issue:width               16 # instruction issue B/W (insts/cycle)
-issue:inorder          false # run pipeline with in-order issue
-issue:wrongpath         true # issue instructions down wrong execution paths
-commit:width              16 # instruction commit B/W (insts/cycle)
-ruu:size                  64 # register update unit (RUU) size
-lsq:size                   8 # load/store queue (LSQ) size
-cache:dl1       dl1:32:64:8:f # l1 data cache config, i.e., {<config>|none}
-cache:dl1lat               1 # l1 data cache hit latency (in cycles)
-cache:dl2       dl2:256:64:8:f # l2 data cache config, i.e., {<config>|none}
-cache:dl2lat               2 # l2 data cache hit latency (in cycles)
-cache:il1       il1:32:64:8:f # l1 inst cache config, i.e., {<config>|dl1|dl2|none}
-cache:il1lat               1 # l1 instruction cache hit latency (in cycles)
-cache:il2                dl2 # l2 instruction cache config, i.e., {<config>|dl2|none}
-cache:il2lat               2 # l2 instruction cache hit latency (in cycles)
-cache:flush            false # flush caches on system calls
-cache:icompress        false # convert 64-bit inst addresses to 32-bit inst equivalents
-mem:lat         103 1 # memory access latency (<first_chunk> <inter_chunk>)
-mem:width                  8 # memory access bus width (in bytes)
-tlb:itlb        itlb:16:4096:4:l # instruction TLB config, i.e., {<config>|none}
-tlb:dtlb        dtlb:32:4096:4:l # data TLB config, i.e., {<config>|none}
-tlb:lat                   30 # inst/data TLB miss latency (in cycles)
-res:ialu                   4 # total number of integer ALU's available
-res:imult                  2 # total number of integer multiplier/dividers available
-res:memport                4 # total number of memory system ports available (to CPU)
-res:fpalu                  8 # total number of floating point ALU's available
-res:fpmult                 2 # total number of floating point multiplier/dividers available
# -pcstat              <null> # profile stat(s) against text addr's (mult uses ok)
-bugcompat              false # operate in backward-compatible bugs mode (for testing only)

  Pipetrace range arguments are formatted as follows:

    {{@|#}<start>}:{{@|#|+}<end>}

  Both ends of the range are optional, if neither are specified, the entire
  execution is traced.  Ranges that start with a `@' designate an address
  range to be traced, those that start with an `#' designate a cycle count
  range.  All other range values represent an instruction count range.  The
  second argument, if specified with a `+', indicates a value relative
  to the first argument, e.g., 1000:+100 == 1000:1100.  Program symbols may
  be used in all contexts.

    Examples:   -ptrace FOO.trc #0:#1000
                -ptrace BAR.trc @2000:
                -ptrace BLAH.trc :1500
                -ptrace UXXE.trc :
                -ptrace FOOBAR.trc @main:+278

  Branch predictor configuration examples for 2-level predictor:
    Configurations:   N, M, W, X
      N   # entries in first level (# of shift register(s))
      W   width of shift register(s)
      M   # entries in 2nd level (# of counters, or other FSM)
      X   (yes-1/no-0) xor history and address for 2nd level index
    Sample predictors:
      GAg     : 1, W, 2^W, 0
      GAp     : 1, W, M (M > 2^W), 0
      PAg     : N, W, 2^W, 0
      PAp     : N, W, M (M == 2^(N+W)), 0
      gshare  : 1, W, 2^W, 1
  Predictor `comb' combines a bimodal and a 2-level predictor.

  The cache config parameter <config> has the following format:

    <name>:<nsets>:<bsize>:<assoc>:<repl>

    <name>   - name of the cache being defined
    <nsets>  - number of sets in the cache
    <bsize>  - block size of the cache
    <assoc>  - associativity of the cache
    <repl>   - block replacement strategy, 'l'-LRU, 'f'-FIFO, 'r'-random

    Examples:   -cache:dl1 dl1:4096:32:1:l
                -dtlb dtlb:128:4096:32:r

  Cache levels can be unified by pointing a level of the instruction cache
  hierarchy at the data cache hiearchy using the "dl1" and "dl2" cache
  configuration arguments.  Most sensible combinations are supported, e.g.,

    A unified l2 cache (il2 is pointed at dl2):
      -cache:il1 il1:128:64:1:l -cache:il2 dl2
      -cache:dl1 dl1:256:32:1:l -cache:dl2 ul2:1024:64:2:l

    Or, a fully unified cache hierarchy (il1 pointed at dl1):
      -cache:il1 dl1
      -cache:dl1 ul1:256:32:1:l -cache:dl2 ul2:1024:64:2:l



sim: ** starting performance simulation **

sim: ** simulation statistics **
sim_num_insn              100000001 # total number of instructions committed
sim_num_refs               44514740 # total number of loads and stores committed
sim_num_loads              32983678 # total number of loads committed
sim_num_stores         11531062.0000 # total number of stores committed
sim_num_branches           10718494 # total number of branches committed
sim_elapsed_time                182 # total simulation time in seconds
sim_inst_rate           549450.5549 # simulation speed (in insts/sec)
sim_total_insn            100000001 # total number of instructions executed
sim_total_refs             44514740 # total number of loads and stores executed
sim_total_loads            32983678 # total number of loads executed
sim_total_stores       11531062.0000 # total number of stores executed
sim_total_branches         10718494 # total number of branches executed
sim_cycle                 163687018 # total simulation time in cycles
sim_IPC                      0.6109 # instructions per cycle
sim_CPI                      1.6369 # cycles per instruction
sim_exec_BW                  0.6109 # total instructions (mis-spec + committed) per cycle
sim_IPB                      9.3297 # instruction per branch
IFQ_count                2618890715 # cumulative IFQ occupancy
IFQ_fcount                163680414 # cumulative IFQ full count
ifq_occupancy               15.9994 # avg IFQ occupancy (insn's)
ifq_rate                     0.6109 # avg IFQ dispatch rate (insn/cycle)
ifq_latency                 26.1889 # avg IFQ occupant latency (cycle's)
ifq_full                     1.0000 # fraction of time (cycle's) IFQ was full
RUU_count                3160511606 # cumulative RUU occupancy
RUU_fcount                        0 # cumulative RUU full count
ruu_occupancy               19.3083 # avg RUU occupancy (insn's)
ruu_rate                     0.6109 # avg RUU dispatch rate (insn/cycle)
ruu_latency                 31.6051 # avg RUU occupant latency (cycle's)
ruu_full                     0.0000 # fraction of time (cycle's) RUU was full
LSQ_count                1294107246 # cumulative LSQ occupancy
LSQ_fcount                157595170 # cumulative LSQ full count
lsq_occupancy                7.9060 # avg LSQ occupancy (insn's)
lsq_rate                     0.6109 # avg LSQ dispatch rate (insn/cycle)
lsq_latency                 12.9411 # avg LSQ occupant latency (cycle's)
lsq_full                     0.9628 # fraction of time (cycle's) LSQ was full
sim_slip                 4599133518 # total number of slip cycles
avg_sim_slip                45.9913 # the average slip between issue and retirement
il1.accesses              160931734 # total number of accesses
il1.hits                  160931674 # total number of hits
il1.misses                       60 # total number of misses
il1.replacements                  0 # total number of replacements
il1.writebacks                    0 # total number of writebacks
il1.invalidations                 0 # total number of invalidations
il1.miss_rate                0.0000 # miss rate (i.e., misses/ref)
il1.repl_rate                0.0000 # replacement rate (i.e., repls/ref)
il1.wb_rate                  0.0000 # writeback rate (i.e., wrbks/ref)
il1.inv_rate                 0.0000 # invalidation rate (i.e., invs/ref)
dl1.accesses               42271093 # total number of accesses
dl1.hits                   39333327 # total number of hits
dl1.misses                  2937766 # total number of misses
dl1.replacements            2937510 # total number of replacements
dl1.writebacks              1161577 # total number of writebacks
dl1.invalidations                 0 # total number of invalidations
dl1.miss_rate                0.0695 # miss rate (i.e., misses/ref)
dl1.repl_rate                0.0695 # replacement rate (i.e., repls/ref)
dl1.wb_rate                  0.0275 # writeback rate (i.e., wrbks/ref)
dl1.inv_rate                 0.0000 # invalidation rate (i.e., invs/ref)
dl2.accesses                4099403 # total number of accesses
dl2.hits                    2534084 # total number of hits
dl2.misses                  1565319 # total number of misses
dl2.replacements            1563271 # total number of replacements
dl2.writebacks               734351 # total number of writebacks
dl2.invalidations                 0 # total number of invalidations
dl2.miss_rate                0.3818 # miss rate (i.e., misses/ref)
dl2.repl_rate                0.3813 # replacement rate (i.e., repls/ref)
dl2.wb_rate                  0.1791 # writeback rate (i.e., wrbks/ref)
dl2.inv_rate                 0.0000 # invalidation rate (i.e., invs/ref)
itlb.accesses             160931734 # total number of accesses
itlb.hits                 160931732 # total number of hits
itlb.misses                       2 # total number of misses
itlb.replacements                 0 # total number of replacements
itlb.writebacks                   0 # total number of writebacks
itlb.invalidations                0 # total number of invalidations
itlb.miss_rate               0.0000 # miss rate (i.e., misses/ref)
itlb.repl_rate               0.0000 # replacement rate (i.e., repls/ref)
itlb.wb_rate                 0.0000 # writeback rate (i.e., wrbks/ref)
itlb.inv_rate                0.0000 # invalidation rate (i.e., invs/ref)
dtlb.accesses              44514736 # total number of accesses
dtlb.hits                  43140152 # total number of hits
dtlb.misses                 1374584 # total number of misses
dtlb.replacements           1374456 # total number of replacements
dtlb.writebacks                   0 # total number of writebacks
dtlb.invalidations                0 # total number of invalidations
dtlb.miss_rate               0.0309 # miss rate (i.e., misses/ref)
dtlb.repl_rate               0.0309 # replacement rate (i.e., repls/ref)
dtlb.wb_rate                 0.0000 # writeback rate (i.e., wrbks/ref)
dtlb.inv_rate                0.0000 # invalidation rate (i.e., invs/ref)
rename_power           535374160.5684 # total power usage of rename unit
bpred_power            546139857.9848 # total power usage of bpred unit
window_power           7073902990.9729 # total power usage of instruction window
lsq_power              637712905.5250 # total power usage of load/store queue
regfile_power          4114885807.7651 # total power usage of arch. regfile
icache_power           496407756.8055 # total power usage of icache
dcache_power           2107928051.5028 # total power usage of dcache
dcache2_power          507917016.6130 # total power usage of dcache2
alu_power              5438046189.0765 # total power usage of alu
falu_power             4675243326.5808 # total power usage of falu
resultbus_power        5128005905.8086 # total power usage of resultbus
clock_power            10125029013.9276 # total power usage of clock
avg_rename_power             3.2707 # avg power usage of rename unit
avg_bpred_power              3.3365 # avg power usage of bpred unit
avg_window_power            43.2160 # avg power usage of instruction window
avg_lsq_power                3.8959 # avg power usage of lsq
avg_regfile_power           25.1387 # avg power usage of arch. regfile
avg_icache_power             3.0327 # avg power usage of icache
avg_dcache_power            12.8778 # avg power usage of dcache
avg_dcache2_power            3.1030 # avg power usage of dcache2
avg_alu_power               33.2222 # avg power usage of alu
avg_falu_power              28.5621 # avg power usage of falu
avg_resultbus_power         31.3281 # avg power usage of resultbus
avg_clock_power             61.8560 # avg power usage of clock
fetch_stage_power      1042547614.7903 # total power usage of fetch stage
dispatch_stage_power   535374160.5684 # total power usage of dispatch stage
issue_stage_power      20893513059.4987 # total power usage of issue stage
avg_fetch_power              6.3692 # average power of fetch unit per cycle
avg_dispatch_power           3.2707 # average power of dispatch unit per cycle
avg_issue_power            127.6431 # average power of issue unit per cycle
total_power            36711349656.5501 # total power per cycle
avg_total_power_cycle      224.2777 # average total power per cycle
avg_total_power_cycle_nofp_nod2     192.6126 # average total power per cycle
avg_total_power_insn       367.1135 # average total power per insn
avg_total_power_insn_nofp_nod2     315.2819 # average total power per insn
rename_power_cc1       72264461.9076 # total power usage of rename unit_cc1
bpred_power_cc1              0.0000 # total power usage of bpred unit_cc1
window_power_cc1       2015163443.8087 # total power usage of instruction window_cc1
lsq_power_cc1          48328890.8880 # total power usage of lsq_cc1
regfile_power_cc1      736804788.2992 # total power usage of arch. regfile_cc1
icache_power_cc1       67004804.7623 # total power usage of icache_cc1
dcache_power_cc1       306692969.1138 # total power usage of dcache_cc1
dcache2_power_cc1      7534317.7309 # total power usage of dcache2_cc1
alu_power_cc1          366968623.4857 # total power usage of alu_cc1
resultbus_power_cc1    1398052983.3409 # total power usage of resultbus_cc1
clock_power_cc1        1957621105.5637 # total power usage of clock_cc1
avg_rename_power_cc1         0.4415 # avg power usage of rename unit_cc1
avg_bpred_power_cc1          0.0000 # avg power usage of bpred unit_cc1
avg_window_power_cc1        12.3111 # avg power usage of instruction window_cc1
avg_lsq_power_cc1            0.2953 # avg power usage of lsq_cc1
avg_regfile_power_cc1        4.5013 # avg power usage of arch. regfile_cc1
avg_icache_power_cc1         0.4093 # avg power usage of icache_cc1
avg_dcache_power_cc1         1.8737 # avg power usage of dcache_cc1
avg_dcache2_power_cc1        0.0460 # avg power usage of dcache2_cc1
avg_alu_power_cc1            2.2419 # avg power usage of alu_cc1
avg_resultbus_power_cc1       8.5410 # avg power usage of resultbus_cc1
avg_clock_power_cc1         11.9595 # avg power usage of clock_cc1
fetch_stage_power_cc1  67004804.7623 # total power usage of fetch stage_cc1
dispatch_stage_power_cc1 72264461.9076 # total power usage of dispatch stage_cc1
issue_stage_power_cc1  4142741228.3679 # total power usage of issue stage_cc1
avg_fetch_power_cc1          0.4093 # average power of fetch unit per cycle_cc1
avg_dispatch_power_cc1       0.4415 # average power of dispatch unit per cycle_cc1
avg_issue_power_cc1         25.3089 # average power of issue unit per cycle_cc1
total_power_cycle_cc1  6976436388.9008 # total power per cycle_cc1
avg_total_power_cycle_cc1      42.6206 # average total power per cycle_cc1
avg_total_power_insn_cc1      69.7644 # average total power per insn_cc1
rename_power_cc2       20441990.9577 # total power usage of rename unit_cc2
bpred_power_cc2              0.0000 # total power usage of bpred unit_cc2
window_power_cc2       403264018.3545 # total power usage of instruction window_cc2
lsq_power_cc2          17456064.1654 # total power usage of lsq_cc2
regfile_power_cc2      67089652.6667 # total power usage of arch. regfile_cc2
icache_power_cc2       67004804.7623 # total power usage of icache_cc2
dcache_power_cc2       136089629.2912 # total power usage of dcache_cc2
dcache2_power_cc2      3180088.0722 # total power usage of dcache2_cc2
alu_power_cc2          132366293.9041 # total power usage of alu_cc2
resultbus_power_cc2    224433838.3335 # total power usage of resultbus_cc2
clock_power_cc2        418507598.5498 # total power usage of clock_cc2
avg_rename_power_cc2         0.1249 # avg power usage of rename unit_cc2
avg_bpred_power_cc2          0.0000 # avg power usage of bpred unit_cc2
avg_window_power_cc2         2.4636 # avg power usage of instruction window_cc2
avg_lsq_power_cc2            0.1066 # avg power usage of instruction lsq_cc2
avg_regfile_power_cc2        0.4099 # avg power usage of arch. regfile_cc2
avg_icache_power_cc2         0.4093 # avg power usage of icache_cc2
avg_dcache_power_cc2         0.8314 # avg power usage of dcache_cc2
avg_dcache2_power_cc2        0.0194 # avg power usage of dcache2_cc2
avg_alu_power_cc2            0.8087 # avg power usage of alu_cc2
avg_resultbus_power_cc2       1.3711 # avg power usage of resultbus_cc2
avg_clock_power_cc2          2.5568 # avg power usage of clock_cc2
fetch_stage_power_cc2  67004804.7623 # total power usage of fetch stage_cc2
dispatch_stage_power_cc2 20441990.9577 # total power usage of dispatch stage_cc2
issue_stage_power_cc2  916789932.1208 # total power usage of issue stage_cc2
avg_fetch_power_cc2          0.4093 # average power of fetch unit per cycle_cc2
avg_dispatch_power_cc2       0.1249 # average power of dispatch unit per cycle_cc2
avg_issue_power_cc2          5.6009 # average power of issue unit per cycle_cc2
total_power_cycle_cc2  1489833979.0574 # total power per cycle_cc2
avg_total_power_cycle_cc2       9.1017 # average total power per cycle_cc2
avg_total_power_insn_cc2      14.8983 # average total power per insn_cc2
rename_power_cc3       66752961.0271 # total power usage of rename unit_cc3
bpred_power_cc3        54613985.7327 # total power usage of bpred unit_cc3
window_power_cc3       886345764.7388 # total power usage of instruction window_cc3
lsq_power_cc3          75858576.5189 # total power usage of lsq_cc3
regfile_power_cc3      396357405.2214 # total power usage of arch. regfile_cc3
icache_power_cc3       109945100.3316 # total power usage of icache_cc3
dcache_power_cc3       316284989.7021 # total power usage of dcache_cc3
dcache2_power_cc3      53220952.1336 # total power usage of dcache2_cc3
alu_power_cc3          639474049.8076 # total power usage of alu_cc3
resultbus_power_cc3    588108777.4655 # total power usage of resultbus_cc3
clock_power_cc3        1219193786.2545 # total power usage of clock_cc3
avg_rename_power_cc3         0.4078 # avg power usage of rename unit_cc3
avg_bpred_power_cc3          0.3336 # avg power usage of bpred unit_cc3
avg_window_power_cc3         5.4149 # avg power usage of instruction window_cc3
avg_lsq_power_cc3            0.4634 # avg power usage of instruction lsq_cc3
avg_regfile_power_cc3        2.4214 # avg power usage of arch. regfile_cc3
avg_icache_power_cc3         0.6717 # avg power usage of icache_cc3
avg_dcache_power_cc3         1.9323 # avg power usage of dcache_cc3
avg_dcache2_power_cc3        0.3251 # avg power usage of dcache2_cc3
avg_alu_power_cc3            3.9067 # avg power usage of alu_cc3
avg_resultbus_power_cc3       3.5929 # avg power usage of resultbus_cc3
avg_clock_power_cc3          7.4483 # avg power usage of clock_cc3
fetch_stage_power_cc3  164559086.0643 # total power usage of fetch stage_cc3
dispatch_stage_power_cc3 66752961.0271 # total power usage of dispatch stage_cc3
issue_stage_power_cc3  2559293110.3664 # total power usage of issue stage_cc3
avg_fetch_power_cc3          1.0053 # average power of fetch unit per cycle_cc3
avg_dispatch_power_cc3       0.4078 # average power of dispatch unit per cycle_cc3
avg_issue_power_cc3         15.6353 # average power of issue unit per cycle_cc3
total_power_cycle_cc3  4406156348.9337 # total power per cycle_cc3
avg_total_power_cycle_cc3      26.9182 # average total power per cycle_cc3
avg_total_power_insn_cc3      44.0616 # average total power per insn_cc3
total_rename_access       100000001 # total number accesses of rename unit
total_bpred_access                0 # total number accesses of bpred unit
total_window_access       383046981 # total number accesses of instruction window
total_lsq_access           46758379 # total number accesses of load/store queue
total_regfile_access      144747185 # total number accesses of arch. regfile
total_icache_access       160931734 # total number accesses of icache
total_dcache_access        42271093 # total number accesses of dcache
total_dcache2_access        4099403 # total number accesses of dcache2
total_alu_access           99999995 # total number accesses of alu
total_resultbus_access    122265172 # total number accesses of resultbus
avg_rename_access            0.6109 # avg number accesses of rename unit
avg_bpred_access             0.0000 # avg number accesses of bpred unit
avg_window_access            2.3401 # avg number accesses of instruction window
avg_lsq_access               0.2857 # avg number accesses of lsq
avg_regfile_access           0.8843 # avg number accesses of arch. regfile
avg_icache_access            0.9832 # avg number accesses of icache
avg_dcache_access            0.2582 # avg number accesses of dcache
avg_dcache2_access           0.0250 # avg number accesses of dcache2
avg_alu_access               0.6109 # avg number accesses of alu
avg_resultbus_access         0.7469 # avg number accesses of resultbus
max_rename_access                16 # max number accesses of rename unit
max_bpred_access                  0 # max number accesses of bpred unit
max_window_access                28 # max number accesses of instruction window
max_lsq_access                    6 # max number accesses of load/store queue
max_regfile_access               28 # max number accesses of arch. regfile
max_icache_access                16 # max number accesses of icache
max_dcache_access                 7 # max number accesses of dcache
max_dcache2_access                8 # max number accesses of dcache2
max_alu_access                    7 # max number accesses of alu
max_resultbus_access              9 # max number accesses of resultbus
max_cycle_power_cc1        160.9935 # maximum cycle power usage of cc1
max_cycle_power_cc2         73.3056 # maximum cycle power usage of cc2
max_cycle_power_cc3         78.8058 # maximum cycle power usage of cc3
sim_invalid_addrs                 0 # total non-speculative bogus addresses seen (debug var)
ld_text_base           0x0120000000 # program text (code) segment base
ld_text_size                 376832 # program text (code) size in bytes
ld_data_base           0x0140000000 # program initialized data segment base
ld_data_size                  70048 # program init'ed `.data' and uninit'ed `.bss' size in bytes
ld_stack_base          0x011ff9b000 # program stack segment base (highest address in stack)
ld_stack_size                 16384 # program initial stack size
ld_prog_entry          0x0120025390 # program entry point (initial PC)
ld_environ_base        0x011ff96460 # program environment base address address
ld_target_big_endian              0 # target executable endian-ness, non-zero if big endian
mem.page_count                 5705 # total number of pages allocated
mem.page_mem                 45640k # total size of memory pages allocated
mem.ptab_misses                5718 # total first level page table misses
mem.ptab_accesses         984178896 # total page table accesses
mem.ptab_miss_rate           0.0000 # first level page table miss rate

