sim-outorder: SimpleScalar/Alpha Tool Set version 3.0 of August, 2003.
Copyright (c) 1994-2003 by Todd M. Austin, Ph.D. and SimpleScalar, LLC.
All Rights Reserved. This version of SimpleScalar is licensed for academic
non-commercial use.  No portion of this work may be used by any commercial
entity, or for any commercial purpose, without the prior written permission
of SimpleScalar, LLC (info@simplescalar.com).


Processor Parameters:
Issue Width: 16
Window Size: 64
Number of Virtual Registers: 32
Number of Physical Registers: 64
Datapath Width: 64
Total Power Consumption: 226.278
Branch Predictor Power Consumption: 3.33649  (1.49%)
 branch target buffer power (W): 2.49493
 local predict power (W): 0.574771
 global predict power (W): 0.0996078
 chooser power (W): 0.0702439
 RAS power (W): 0.0969383
Rename Logic Power Consumption: 3.27072  (1.46%)
 Instruction Decode Power (W): 0.0639661
 RAT decode_power (W): 0.454058
 RAT wordline_power (W): 0.227603
 RAT bitline_power (W): 2.30694
 DCL Comparators (W): 0.218151
Instruction Window Power Consumption: 43.216  (19.3%)
 tagdrive (W): 2.9395
 tagmatch (W): 0.989695
 Selection Logic (W): 0.225484
 decode_power (W): 0.976583
 wordline_power (W): 1.0557
 bitline_power (W): 37.0291
Load/Store Queue Power Consumption: 3.89593  (1.74%)
 tagdrive (W): 0.980932
 tagmatch (W): 0.214942
 decode_power (W): 0.0159915
 wordline_power (W): 0.0433172
 bitline_power (W): 2.64075
Arch. Register File Power Consumption: 25.1387  (11.2%)
 decode_power (W): 0.454058
 wordline_power (W): 1.0557
 bitline_power (W): 23.629
Result Bus Power Consumption: 31.3281  (14%)
Total Clock Power: 61.856  (27.6%)
Int ALU Power: 4.66013  (2.08%)
FP ALU Power: 28.5621  (12.7%)
Instruction Cache Power Consumption: 2.76773  (1.23%)
 decode_power (W): 0.151353
 wordline_power (W): 0.180479
 bitline_power (W): 1.42251
 senseamp_power (W): 0.768
 tagarray_power (W): 0.245382
Itlb_power (W): 0.264936 (0.118%)
Data Cache Power Consumption: 11.0709  (4.94%)
 decode_power (W): 0.60541
 wordline_power (W): 0.721917
 bitline_power (W): 5.69006
 senseamp_power (W): 3.072
 tagarray_power (W): 0.981529
Dtlb_power (W): 1.80688 (0.806%)
Level 2 Cache Power Consumption: 3.10298 (1.38%)
 decode_power (W): 0.19487
 wordline_power (W): 0.0430878
 bitline_power (W): 1.77274
 senseamp_power (W): 0.192
 tagarray_power (W): 0.900275
sim: loading EIO file: ../benchmarks/176.gcc.00-expr-ref.eio.gz
sim: command line: ./sim-outorder -config ../configs/current.config ../benchmarks/176.gcc.00-expr-ref.eio.gz 

sim: simulation started @ Tue Nov 24 11:24:23 2015, options follow:

sim-outorder: This simulator implements a very detailed out-of-order issue
superscalar processor with a two-level memory system and speculative
execution support.  This simulator is a performance simulator, tracking the
latency of all pipeline operations.

# -config                     # load configuration from a file
# -dumpconfig                 # dump configuration to a file
# -h                    false # print help message    
# -v                    false # verbose operation     
# -d                    false # enable debug message  
# -i                    false # start in Dlite debugger
-seed                       1 # random number generator seed (0 for timer seed)
# -q                    false # initialize and terminate immediately
# -chkpt               <null> # restore EIO trace execution from <fname>
# -redir:sim     ../results/20_19_fus/176.gcc.00-expr-ref.eio.gz.out # redirect simulator output to file (non-interactive only)
# -redir:prog       /dev/null # redirect simulated program output to file
-nice                       0 # simulator scheduling priority
-freq            600000000.0000 # frequency             
-max:inst           100000000 # maximum number of inst's to execute
-fastfwd                    0 # number of insts skipped before timing starts
# -ptrace              <null> # generate pipetrace, i.e., <fname|stdout|stderr> <range>
-fetch:ifqsize             16 # instruction fetch queue size (in insts)
-fetch:mplat               15 # extra branch mis-prediction latency
-fetch:speed                1 # speed of front-end of machine relative to execution core
-bpred                perfect # branch predictor type {nottaken|taken|perfect|bimod|2lev|comb}
-bpred:bimod     2048 # bimodal predictor config (<table size>)
-bpred:2lev      1 16384 4 0 # 2-level predictor config (<l1size> <l2size> <hist_size> <xor>)
-bpred:comb      1024 # combining predictor config (<meta_table_size>)
-bpred:ras                  8 # return address stack size (0 for no return stack)
-bpred:btb       512 4 # BTB config (<num_sets> <associativity>)
# -bpred:spec_update       <null> # speculative predictors update in {ID|WB} (default non-spec)
-decode:width              16 # instruction decode B/W (insts/cycle)
-issue:width               16 # instruction issue B/W (insts/cycle)
-issue:inorder          false # run pipeline with in-order issue
-issue:wrongpath         true # issue instructions down wrong execution paths
-commit:width              16 # instruction commit B/W (insts/cycle)
-ruu:size                  64 # register update unit (RUU) size
-lsq:size                   8 # load/store queue (LSQ) size
-cache:dl1       dl1:32:64:8:f # l1 data cache config, i.e., {<config>|none}
-cache:dl1lat               1 # l1 data cache hit latency (in cycles)
-cache:dl2       dl2:256:64:8:f # l2 data cache config, i.e., {<config>|none}
-cache:dl2lat               2 # l2 data cache hit latency (in cycles)
-cache:il1       il1:32:64:8:f # l1 inst cache config, i.e., {<config>|dl1|dl2|none}
-cache:il1lat               1 # l1 instruction cache hit latency (in cycles)
-cache:il2                dl2 # l2 instruction cache config, i.e., {<config>|dl2|none}
-cache:il2lat               2 # l2 instruction cache hit latency (in cycles)
-cache:flush            false # flush caches on system calls
-cache:icompress        false # convert 64-bit inst addresses to 32-bit inst equivalents
-mem:lat         103 1 # memory access latency (<first_chunk> <inter_chunk>)
-mem:width                  8 # memory access bus width (in bytes)
-tlb:itlb        itlb:16:4096:4:l # instruction TLB config, i.e., {<config>|none}
-tlb:dtlb        dtlb:32:4096:4:l # data TLB config, i.e., {<config>|none}
-tlb:lat                   30 # inst/data TLB miss latency (in cycles)
-res:ialu                   4 # total number of integer ALU's available
-res:imult                  2 # total number of integer multiplier/dividers available
-res:memport                4 # total number of memory system ports available (to CPU)
-res:fpalu                  8 # total number of floating point ALU's available
-res:fpmult                 2 # total number of floating point multiplier/dividers available
# -pcstat              <null> # profile stat(s) against text addr's (mult uses ok)
-bugcompat              false # operate in backward-compatible bugs mode (for testing only)

  Pipetrace range arguments are formatted as follows:

    {{@|#}<start>}:{{@|#|+}<end>}

  Both ends of the range are optional, if neither are specified, the entire
  execution is traced.  Ranges that start with a `@' designate an address
  range to be traced, those that start with an `#' designate a cycle count
  range.  All other range values represent an instruction count range.  The
  second argument, if specified with a `+', indicates a value relative
  to the first argument, e.g., 1000:+100 == 1000:1100.  Program symbols may
  be used in all contexts.

    Examples:   -ptrace FOO.trc #0:#1000
                -ptrace BAR.trc @2000:
                -ptrace BLAH.trc :1500
                -ptrace UXXE.trc :
                -ptrace FOOBAR.trc @main:+278

  Branch predictor configuration examples for 2-level predictor:
    Configurations:   N, M, W, X
      N   # entries in first level (# of shift register(s))
      W   width of shift register(s)
      M   # entries in 2nd level (# of counters, or other FSM)
      X   (yes-1/no-0) xor history and address for 2nd level index
    Sample predictors:
      GAg     : 1, W, 2^W, 0
      GAp     : 1, W, M (M > 2^W), 0
      PAg     : N, W, 2^W, 0
      PAp     : N, W, M (M == 2^(N+W)), 0
      gshare  : 1, W, 2^W, 1
  Predictor `comb' combines a bimodal and a 2-level predictor.

  The cache config parameter <config> has the following format:

    <name>:<nsets>:<bsize>:<assoc>:<repl>

    <name>   - name of the cache being defined
    <nsets>  - number of sets in the cache
    <bsize>  - block size of the cache
    <assoc>  - associativity of the cache
    <repl>   - block replacement strategy, 'l'-LRU, 'f'-FIFO, 'r'-random

    Examples:   -cache:dl1 dl1:4096:32:1:l
                -dtlb dtlb:128:4096:32:r

  Cache levels can be unified by pointing a level of the instruction cache
  hierarchy at the data cache hiearchy using the "dl1" and "dl2" cache
  configuration arguments.  Most sensible combinations are supported, e.g.,

    A unified l2 cache (il2 is pointed at dl2):
      -cache:il1 il1:128:64:1:l -cache:il2 dl2
      -cache:dl1 dl1:256:32:1:l -cache:dl2 ul2:1024:64:2:l

    Or, a fully unified cache hierarchy (il1 pointed at dl1):
      -cache:il1 dl1
      -cache:dl1 ul1:256:32:1:l -cache:dl2 ul2:1024:64:2:l



sim: ** starting performance simulation **

sim: ** simulation statistics **
sim_num_insn              100000001 # total number of instructions committed
sim_num_refs               62486118 # total number of loads and stores committed
sim_num_loads              45137447 # total number of loads committed
sim_num_stores         17348671.0000 # total number of stores committed
sim_num_branches           10121353 # total number of branches committed
sim_elapsed_time                121 # total simulation time in seconds
sim_inst_rate           826446.2893 # simulation speed (in insts/sec)
sim_total_insn            100000001 # total number of instructions executed
sim_total_refs             62486118 # total number of loads and stores executed
sim_total_loads            45137447 # total number of loads executed
sim_total_stores       17348671.0000 # total number of stores executed
sim_total_branches         10121353 # total number of branches executed
sim_cycle                  68712785 # total simulation time in cycles
sim_IPC                      1.4553 # instructions per cycle
sim_CPI                      0.6871 # cycles per instruction
sim_exec_BW                  1.4553 # total instructions (mis-spec + committed) per cycle
sim_IPB                      9.8801 # instruction per branch
IFQ_count                 955606138 # cumulative IFQ occupancy
IFQ_fcount                 59530449 # cumulative IFQ full count
ifq_occupancy               13.9073 # avg IFQ occupancy (insn's)
ifq_rate                     1.4553 # avg IFQ dispatch rate (insn/cycle)
ifq_latency                  9.5561 # avg IFQ occupant latency (cycle's)
ifq_full                     0.8664 # fraction of time (cycle's) IFQ was full
RUU_count                 922824529 # cumulative RUU occupancy
RUU_fcount                    10432 # cumulative RUU full count
ruu_occupancy               13.4302 # avg RUU occupancy (insn's)
ruu_rate                     1.4553 # avg RUU dispatch rate (insn/cycle)
ruu_latency                  9.2282 # avg RUU occupant latency (cycle's)
ruu_full                     0.0002 # fraction of time (cycle's) RUU was full
LSQ_count                 464827522 # cumulative LSQ occupancy
LSQ_fcount                 50993559 # cumulative LSQ full count
lsq_occupancy                6.7648 # avg LSQ occupancy (insn's)
lsq_rate                     1.4553 # avg LSQ dispatch rate (insn/cycle)
lsq_latency                  4.6483 # avg LSQ occupant latency (cycle's)
lsq_full                     0.7421 # fraction of time (cycle's) LSQ was full
sim_slip                 1550138122 # total number of slip cycles
avg_sim_slip                15.5014 # the average slip between issue and retirement
il1.accesses              210416897 # total number of accesses
il1.hits                  210306922 # total number of hits
il1.misses                   109975 # total number of misses
il1.replacements             109719 # total number of replacements
il1.writebacks                    0 # total number of writebacks
il1.invalidations                 0 # total number of invalidations
il1.miss_rate                0.0005 # miss rate (i.e., misses/ref)
il1.repl_rate                0.0005 # replacement rate (i.e., repls/ref)
il1.wb_rate                  0.0000 # writeback rate (i.e., wrbks/ref)
il1.inv_rate                 0.0000 # invalidation rate (i.e., invs/ref)
dl1.accesses               62465094 # total number of accesses
dl1.hits                   60106612 # total number of hits
dl1.misses                  2358482 # total number of misses
dl1.replacements            2358226 # total number of replacements
dl1.writebacks              2076740 # total number of writebacks
dl1.invalidations                 0 # total number of invalidations
dl1.miss_rate                0.0378 # miss rate (i.e., misses/ref)
dl1.repl_rate                0.0378 # replacement rate (i.e., repls/ref)
dl1.wb_rate                  0.0332 # writeback rate (i.e., wrbks/ref)
dl1.inv_rate                 0.0000 # invalidation rate (i.e., invs/ref)
dl2.accesses                4545197 # total number of accesses
dl2.hits                    2707484 # total number of hits
dl2.misses                  1837713 # total number of misses
dl2.replacements            1835665 # total number of replacements
dl2.writebacks              1498676 # total number of writebacks
dl2.invalidations                 0 # total number of invalidations
dl2.miss_rate                0.4043 # miss rate (i.e., misses/ref)
dl2.repl_rate                0.4039 # replacement rate (i.e., repls/ref)
dl2.wb_rate                  0.3297 # writeback rate (i.e., wrbks/ref)
dl2.inv_rate                 0.0000 # invalidation rate (i.e., invs/ref)
itlb.accesses             210416897 # total number of accesses
itlb.hits                 210414649 # total number of hits
itlb.misses                    2248 # total number of misses
itlb.replacements              2187 # total number of replacements
itlb.writebacks                   0 # total number of writebacks
itlb.invalidations                0 # total number of invalidations
itlb.miss_rate               0.0000 # miss rate (i.e., misses/ref)
itlb.repl_rate               0.0000 # replacement rate (i.e., repls/ref)
itlb.wb_rate                 0.0000 # writeback rate (i.e., wrbks/ref)
itlb.inv_rate                0.0000 # invalidation rate (i.e., invs/ref)
dtlb.accesses              62486111 # total number of accesses
dtlb.hits                  62454850 # total number of hits
dtlb.misses                   31261 # total number of misses
dtlb.replacements             31133 # total number of replacements
dtlb.writebacks                   0 # total number of writebacks
dtlb.invalidations                0 # total number of invalidations
dtlb.miss_rate               0.0005 # miss rate (i.e., misses/ref)
dtlb.repl_rate               0.0005 # replacement rate (i.e., repls/ref)
dtlb.wb_rate                 0.0000 # writeback rate (i.e., wrbks/ref)
dtlb.inv_rate                0.0000 # invalidation rate (i.e., invs/ref)
rename_power           224740178.2551 # total power usage of rename unit
bpred_power            229259418.0313 # total power usage of bpred unit
window_power           2969493752.8897 # total power usage of instruction window
lsq_power              267700091.4261 # total power usage of load/store queue
regfile_power          1727353021.3017 # total power usage of arch. regfile
icache_power           208382802.3822 # total power usage of icache
dcache_power           884869237.2327 # total power usage of dcache
dcache2_power          213214175.6405 # total power usage of dcache2
alu_power              2282791286.0505 # total power usage of alu
falu_power             1962580743.5476 # total power usage of falu
resultbus_power        2152642110.3836 # total power usage of resultbus
clock_power            4250300054.7427 # total power usage of clock
avg_rename_power             3.2707 # avg power usage of rename unit
avg_bpred_power              3.3365 # avg power usage of bpred unit
avg_window_power            43.2160 # avg power usage of instruction window
avg_lsq_power                3.8959 # avg power usage of lsq
avg_regfile_power           25.1387 # avg power usage of arch. regfile
avg_icache_power             3.0327 # avg power usage of icache
avg_dcache_power            12.8778 # avg power usage of dcache
avg_dcache2_power            3.1030 # avg power usage of dcache2
avg_alu_power               33.2222 # avg power usage of alu
avg_falu_power              28.5621 # avg power usage of falu
avg_resultbus_power         31.3281 # avg power usage of resultbus
avg_clock_power             61.8560 # avg power usage of clock
fetch_stage_power      437642220.4135 # total power usage of fetch stage
dispatch_stage_power   224740178.2551 # total power usage of dispatch stage
issue_stage_power      8770710653.6232 # total power usage of issue stage
avg_fetch_power              6.3692 # average power of fetch unit per cycle
avg_dispatch_power           3.2707 # average power of dispatch unit per cycle
avg_issue_power            127.6431 # average power of issue unit per cycle
total_power            15410746128.3362 # total power per cycle
avg_total_power_cycle      224.2777 # average total power per cycle
avg_total_power_cycle_nofp_nod2     192.6126 # average total power per cycle
avg_total_power_insn       154.1075 # average total power per insn
avg_total_power_insn_nofp_nod2     132.3495 # average total power per insn
rename_power_cc1       103737909.1380 # total power usage of rename unit_cc1
bpred_power_cc1              0.0000 # total power usage of bpred unit_cc1
window_power_cc1       1413421996.9936 # total power usage of instruction window_cc1
lsq_power_cc1          74258062.6700 # total power usage of lsq_cc1
regfile_power_cc1      722849701.4744 # total power usage of arch. regfile_cc1
icache_power_cc1       96230431.9082 # total power usage of icache_cc1
dcache_power_cc1       399432633.5269 # total power usage of dcache_cc1
dcache2_power_cc1      7613459.9292 # total power usage of dcache2_cc1
alu_power_cc1          157626805.6221 # total power usage of alu_cc1
resultbus_power_cc1    1055526379.8297 # total power usage of resultbus_cc1
clock_power_cc1        1513243954.6025 # total power usage of clock_cc1
avg_rename_power_cc1         1.5097 # avg power usage of rename unit_cc1
avg_bpred_power_cc1          0.0000 # avg power usage of bpred unit_cc1
avg_window_power_cc1        20.5700 # avg power usage of instruction window_cc1
avg_lsq_power_cc1            1.0807 # avg power usage of lsq_cc1
avg_regfile_power_cc1       10.5199 # avg power usage of arch. regfile_cc1
avg_icache_power_cc1         1.4005 # avg power usage of icache_cc1
avg_dcache_power_cc1         5.8131 # avg power usage of dcache_cc1
avg_dcache2_power_cc1        0.1108 # avg power usage of dcache2_cc1
avg_alu_power_cc1            2.2940 # avg power usage of alu_cc1
avg_resultbus_power_cc1      15.3614 # avg power usage of resultbus_cc1
avg_clock_power_cc1         22.0227 # avg power usage of clock_cc1
fetch_stage_power_cc1  96230431.9082 # total power usage of fetch stage_cc1
dispatch_stage_power_cc1 103737909.1380 # total power usage of dispatch stage_cc1
issue_stage_power_cc1  3107879338.5715 # total power usage of issue stage_cc1
avg_fetch_power_cc1          1.4005 # average power of fetch unit per cycle_cc1
avg_dispatch_power_cc1       1.5097 # average power of dispatch unit per cycle_cc1
avg_issue_power_cc1         45.2300 # average power of issue unit per cycle_cc1
total_power_cycle_cc1  5543941335.6944 # total power per cycle_cc1
avg_total_power_cycle_cc1      80.6828 # average total power per cycle_cc1
avg_total_power_insn_cc1      55.4394 # average total power per insn_cc1
rename_power_cc2       20441990.9551 # total power usage of rename unit_cc2
bpred_power_cc2              0.0000 # total power usage of bpred unit_cc2
window_power_cc2       467839434.7428 # total power usage of instruction window_cc2
lsq_power_cc2          25070575.8880 # total power usage of lsq_cc2
regfile_power_cc2      75647783.5763 # total power usage of arch. regfile_cc2
icache_power_cc2       96230431.9082 # total power usage of icache_cc2
dcache_power_cc2       201103186.2742 # total power usage of dcache_cc2
dcache2_power_cc2      3525910.1789 # total power usage of dcache2_cc2
alu_power_cc2          114179807.6195 # total power usage of alu_cc2
resultbus_power_cc2    247839816.0560 # total power usage of resultbus_cc2
clock_power_cc2        469180319.7501 # total power usage of clock_cc2
avg_rename_power_cc2         0.2975 # avg power usage of rename unit_cc2
avg_bpred_power_cc2          0.0000 # avg power usage of bpred unit_cc2
avg_window_power_cc2         6.8086 # avg power usage of instruction window_cc2
avg_lsq_power_cc2            0.3649 # avg power usage of instruction lsq_cc2
avg_regfile_power_cc2        1.1009 # avg power usage of arch. regfile_cc2
avg_icache_power_cc2         1.4005 # avg power usage of icache_cc2
avg_dcache_power_cc2         2.9267 # avg power usage of dcache_cc2
avg_dcache2_power_cc2        0.0513 # avg power usage of dcache2_cc2
avg_alu_power_cc2            1.6617 # avg power usage of alu_cc2
avg_resultbus_power_cc2       3.6069 # avg power usage of resultbus_cc2
avg_clock_power_cc2          6.8281 # avg power usage of clock_cc2
fetch_stage_power_cc2  96230431.9082 # total power usage of fetch stage_cc2
dispatch_stage_power_cc2 20441990.9551 # total power usage of dispatch stage_cc2
issue_stage_power_cc2  1059558730.7594 # total power usage of issue stage_cc2
avg_fetch_power_cc2          1.4005 # average power of fetch unit per cycle_cc2
avg_dispatch_power_cc2       0.2975 # average power of dispatch unit per cycle_cc2
avg_issue_power_cc2         15.4201 # average power of issue unit per cycle_cc2
total_power_cycle_cc2  1721059256.9491 # total power per cycle_cc2
avg_total_power_cycle_cc2      25.0471 # average total power per cycle_cc2
avg_total_power_insn_cc2      17.2106 # average total power per insn_cc2
rename_power_cc3       32542217.9066 # total power usage of rename unit_cc3
bpred_power_cc3        22925941.8273 # total power usage of bpred unit_cc3
window_power_cc3       606998725.6567 # total power usage of instruction window_cc3
lsq_power_cc3          44372165.4915 # total power usage of lsq_cc3
regfile_power_cc3      164802352.0010 # total power usage of arch. regfile_cc3
icache_power_cc3       107445669.0398 # total power usage of icache_cc3
dcache_power_cc3       249670989.3276 # total power usage of dcache_cc3
dcache2_power_cc3      24086053.3349 # total power usage of dcache2_cc3
alu_power_cc3          326696255.2056 # total power usage of alu_cc3
resultbus_power_cc3    350514546.0861 # total power usage of resultbus_cc3
clock_power_cc3        729664031.1666 # total power usage of clock_cc3
avg_rename_power_cc3         0.4736 # avg power usage of rename unit_cc3
avg_bpred_power_cc3          0.3336 # avg power usage of bpred unit_cc3
avg_window_power_cc3         8.8339 # avg power usage of instruction window_cc3
avg_lsq_power_cc3            0.6458 # avg power usage of instruction lsq_cc3
avg_regfile_power_cc3        2.3984 # avg power usage of arch. regfile_cc3
avg_icache_power_cc3         1.5637 # avg power usage of icache_cc3
avg_dcache_power_cc3         3.6335 # avg power usage of dcache_cc3
avg_dcache2_power_cc3        0.3505 # avg power usage of dcache2_cc3
avg_alu_power_cc3            4.7545 # avg power usage of alu_cc3
avg_resultbus_power_cc3       5.1012 # avg power usage of resultbus_cc3
avg_clock_power_cc3         10.6190 # avg power usage of clock_cc3
fetch_stage_power_cc3  130371610.8671 # total power usage of fetch stage_cc3
dispatch_stage_power_cc3 32542217.9066 # total power usage of dispatch stage_cc3
issue_stage_power_cc3  1602338735.1024 # total power usage of issue stage_cc3
avg_fetch_power_cc3          1.8973 # average power of fetch unit per cycle_cc3
avg_dispatch_power_cc3       0.4736 # average power of dispatch unit per cycle_cc3
avg_issue_power_cc3         23.3194 # average power of issue unit per cycle_cc3
total_power_cycle_cc3  2659718947.0436 # total power per cycle_cc3
avg_total_power_cycle_cc3      38.7078 # average total power per cycle_cc3
avg_total_power_insn_cc3      26.5972 # average total power per insn_cc3
total_rename_access       100000001 # total number accesses of rename unit
total_bpred_access                0 # total number accesses of bpred unit
total_window_access       455565841 # total number accesses of instruction window
total_lsq_access           62507128 # total number accesses of load/store queue
total_regfile_access      167282973 # total number accesses of arch. regfile
total_icache_access       210416897 # total number accesses of icache
total_dcache_access        62465094 # total number accesses of dcache
total_dcache2_access        4545197 # total number accesses of dcache2
total_alu_access           98005101 # total number accesses of alu
total_resultbus_access    135016083 # total number accesses of resultbus
avg_rename_access            1.4553 # avg number accesses of rename unit
avg_bpred_access             0.0000 # avg number accesses of bpred unit
avg_window_access            6.6300 # avg number accesses of instruction window
avg_lsq_access               0.9097 # avg number accesses of lsq
avg_regfile_access           2.4345 # avg number accesses of arch. regfile
avg_icache_access            3.0623 # avg number accesses of icache
avg_dcache_access            0.9091 # avg number accesses of dcache
avg_dcache2_access           0.0661 # avg number accesses of dcache2
avg_alu_access               1.4263 # avg number accesses of alu
avg_resultbus_access         1.9649 # avg number accesses of resultbus
max_rename_access                16 # max number accesses of rename unit
max_bpred_access                  0 # max number accesses of bpred unit
max_window_access                35 # max number accesses of instruction window
max_lsq_access                    8 # max number accesses of load/store queue
max_regfile_access               29 # max number accesses of arch. regfile
max_icache_access                16 # max number accesses of icache
max_dcache_access                 8 # max number accesses of dcache
max_dcache2_access                9 # max number accesses of dcache2
max_alu_access                    6 # max number accesses of alu
max_resultbus_access              9 # max number accesses of resultbus
max_cycle_power_cc1        166.0755 # maximum cycle power usage of cc1
max_cycle_power_cc2         74.4494 # maximum cycle power usage of cc2
max_cycle_power_cc3         81.6034 # maximum cycle power usage of cc3
sim_invalid_addrs                 0 # total non-speculative bogus addresses seen (debug var)
ld_text_base           0x0120000000 # program text (code) segment base
ld_text_size                1990656 # program text (code) size in bytes
ld_data_base           0x0140000000 # program initialized data segment base
ld_data_size                 306320 # program init'ed `.data' and uninit'ed `.bss' size in bytes
ld_stack_base          0x011ff9b000 # program stack segment base (highest address in stack)
ld_stack_size                 16384 # program initial stack size
ld_prog_entry          0x01201cdbd8 # program entry point (initial PC)
ld_environ_base        0x011fe9e770 # program environment base address address
ld_target_big_endian              0 # target executable endian-ness, non-zero if big endian
mem.page_count                 2015 # total number of pages allocated
mem.page_mem                 16120k # total size of memory pages allocated
mem.ptab_misses               13183 # total first level page table misses
mem.ptab_accesses        1378393204 # total page table accesses
mem.ptab_miss_rate           0.0000 # first level page table miss rate

