sim-outorder: SimpleScalar/Alpha Tool Set version 3.0 of August, 2003.
Copyright (c) 1994-2003 by Todd M. Austin, Ph.D. and SimpleScalar, LLC.
All Rights Reserved. This version of SimpleScalar is licensed for academic
non-commercial use.  No portion of this work may be used by any commercial
entity, or for any commercial purpose, without the prior written permission
of SimpleScalar, LLC (info@simplescalar.com).


Processor Parameters:
Issue Width: 16
Window Size: 64
Number of Virtual Registers: 32
Number of Physical Registers: 64
Datapath Width: 64
Total Power Consumption: 226.278
Branch Predictor Power Consumption: 3.33649  (1.49%)
 branch target buffer power (W): 2.49493
 local predict power (W): 0.574771
 global predict power (W): 0.0996078
 chooser power (W): 0.0702439
 RAS power (W): 0.0969383
Rename Logic Power Consumption: 3.27072  (1.46%)
 Instruction Decode Power (W): 0.0639661
 RAT decode_power (W): 0.454058
 RAT wordline_power (W): 0.227603
 RAT bitline_power (W): 2.30694
 DCL Comparators (W): 0.218151
Instruction Window Power Consumption: 43.216  (19.3%)
 tagdrive (W): 2.9395
 tagmatch (W): 0.989695
 Selection Logic (W): 0.225484
 decode_power (W): 0.976583
 wordline_power (W): 1.0557
 bitline_power (W): 37.0291
Load/Store Queue Power Consumption: 3.89593  (1.74%)
 tagdrive (W): 0.980932
 tagmatch (W): 0.214942
 decode_power (W): 0.0159915
 wordline_power (W): 0.0433172
 bitline_power (W): 2.64075
Arch. Register File Power Consumption: 25.1387  (11.2%)
 decode_power (W): 0.454058
 wordline_power (W): 1.0557
 bitline_power (W): 23.629
Result Bus Power Consumption: 31.3281  (14%)
Total Clock Power: 61.856  (27.6%)
Int ALU Power: 4.66013  (2.08%)
FP ALU Power: 28.5621  (12.7%)
Instruction Cache Power Consumption: 2.76773  (1.23%)
 decode_power (W): 0.151353
 wordline_power (W): 0.180479
 bitline_power (W): 1.42251
 senseamp_power (W): 0.768
 tagarray_power (W): 0.245382
Itlb_power (W): 0.264936 (0.118%)
Data Cache Power Consumption: 11.0709  (4.94%)
 decode_power (W): 0.60541
 wordline_power (W): 0.721917
 bitline_power (W): 5.69006
 senseamp_power (W): 3.072
 tagarray_power (W): 0.981529
Dtlb_power (W): 1.80688 (0.806%)
Level 2 Cache Power Consumption: 3.10298 (1.38%)
 decode_power (W): 0.19487
 wordline_power (W): 0.0430878
 bitline_power (W): 1.77274
 senseamp_power (W): 0.192
 tagarray_power (W): 0.900275
sim: loading EIO file: ../benchmarks/191.fma3d.spec_ref.eio.gz
sim: command line: ./sim-outorder -config ../configs/current.config ../benchmarks/191.fma3d.spec_ref.eio.gz 

sim: simulation started @ Tue Nov 24 11:24:30 2015, options follow:

sim-outorder: This simulator implements a very detailed out-of-order issue
superscalar processor with a two-level memory system and speculative
execution support.  This simulator is a performance simulator, tracking the
latency of all pipeline operations.

# -config                     # load configuration from a file
# -dumpconfig                 # dump configuration to a file
# -h                    false # print help message    
# -v                    false # verbose operation     
# -d                    false # enable debug message  
# -i                    false # start in Dlite debugger
-seed                       1 # random number generator seed (0 for timer seed)
# -q                    false # initialize and terminate immediately
# -chkpt               <null> # restore EIO trace execution from <fname>
# -redir:sim     ../results/20_19_fus/191.fma3d.spec_ref.eio.gz.out # redirect simulator output to file (non-interactive only)
# -redir:prog       /dev/null # redirect simulated program output to file
-nice                       0 # simulator scheduling priority
-freq            600000000.0000 # frequency             
-max:inst           100000000 # maximum number of inst's to execute
-fastfwd                    0 # number of insts skipped before timing starts
# -ptrace              <null> # generate pipetrace, i.e., <fname|stdout|stderr> <range>
-fetch:ifqsize             16 # instruction fetch queue size (in insts)
-fetch:mplat               15 # extra branch mis-prediction latency
-fetch:speed                1 # speed of front-end of machine relative to execution core
-bpred                perfect # branch predictor type {nottaken|taken|perfect|bimod|2lev|comb}
-bpred:bimod     2048 # bimodal predictor config (<table size>)
-bpred:2lev      1 16384 4 0 # 2-level predictor config (<l1size> <l2size> <hist_size> <xor>)
-bpred:comb      1024 # combining predictor config (<meta_table_size>)
-bpred:ras                  8 # return address stack size (0 for no return stack)
-bpred:btb       512 4 # BTB config (<num_sets> <associativity>)
# -bpred:spec_update       <null> # speculative predictors update in {ID|WB} (default non-spec)
-decode:width              16 # instruction decode B/W (insts/cycle)
-issue:width               16 # instruction issue B/W (insts/cycle)
-issue:inorder          false # run pipeline with in-order issue
-issue:wrongpath         true # issue instructions down wrong execution paths
-commit:width              16 # instruction commit B/W (insts/cycle)
-ruu:size                  64 # register update unit (RUU) size
-lsq:size                   8 # load/store queue (LSQ) size
-cache:dl1       dl1:32:64:8:f # l1 data cache config, i.e., {<config>|none}
-cache:dl1lat               1 # l1 data cache hit latency (in cycles)
-cache:dl2       dl2:256:64:8:f # l2 data cache config, i.e., {<config>|none}
-cache:dl2lat               2 # l2 data cache hit latency (in cycles)
-cache:il1       il1:32:64:8:f # l1 inst cache config, i.e., {<config>|dl1|dl2|none}
-cache:il1lat               1 # l1 instruction cache hit latency (in cycles)
-cache:il2                dl2 # l2 instruction cache config, i.e., {<config>|dl2|none}
-cache:il2lat               2 # l2 instruction cache hit latency (in cycles)
-cache:flush            false # flush caches on system calls
-cache:icompress        false # convert 64-bit inst addresses to 32-bit inst equivalents
-mem:lat         103 1 # memory access latency (<first_chunk> <inter_chunk>)
-mem:width                  8 # memory access bus width (in bytes)
-tlb:itlb        itlb:16:4096:4:l # instruction TLB config, i.e., {<config>|none}
-tlb:dtlb        dtlb:32:4096:4:l # data TLB config, i.e., {<config>|none}
-tlb:lat                   30 # inst/data TLB miss latency (in cycles)
-res:ialu                   4 # total number of integer ALU's available
-res:imult                  2 # total number of integer multiplier/dividers available
-res:memport                4 # total number of memory system ports available (to CPU)
-res:fpalu                  8 # total number of floating point ALU's available
-res:fpmult                 2 # total number of floating point multiplier/dividers available
# -pcstat              <null> # profile stat(s) against text addr's (mult uses ok)
-bugcompat              false # operate in backward-compatible bugs mode (for testing only)

  Pipetrace range arguments are formatted as follows:

    {{@|#}<start>}:{{@|#|+}<end>}

  Both ends of the range are optional, if neither are specified, the entire
  execution is traced.  Ranges that start with a `@' designate an address
  range to be traced, those that start with an `#' designate a cycle count
  range.  All other range values represent an instruction count range.  The
  second argument, if specified with a `+', indicates a value relative
  to the first argument, e.g., 1000:+100 == 1000:1100.  Program symbols may
  be used in all contexts.

    Examples:   -ptrace FOO.trc #0:#1000
                -ptrace BAR.trc @2000:
                -ptrace BLAH.trc :1500
                -ptrace UXXE.trc :
                -ptrace FOOBAR.trc @main:+278

  Branch predictor configuration examples for 2-level predictor:
    Configurations:   N, M, W, X
      N   # entries in first level (# of shift register(s))
      W   width of shift register(s)
      M   # entries in 2nd level (# of counters, or other FSM)
      X   (yes-1/no-0) xor history and address for 2nd level index
    Sample predictors:
      GAg     : 1, W, 2^W, 0
      GAp     : 1, W, M (M > 2^W), 0
      PAg     : N, W, 2^W, 0
      PAp     : N, W, M (M == 2^(N+W)), 0
      gshare  : 1, W, 2^W, 1
  Predictor `comb' combines a bimodal and a 2-level predictor.

  The cache config parameter <config> has the following format:

    <name>:<nsets>:<bsize>:<assoc>:<repl>

    <name>   - name of the cache being defined
    <nsets>  - number of sets in the cache
    <bsize>  - block size of the cache
    <assoc>  - associativity of the cache
    <repl>   - block replacement strategy, 'l'-LRU, 'f'-FIFO, 'r'-random

    Examples:   -cache:dl1 dl1:4096:32:1:l
                -dtlb dtlb:128:4096:32:r

  Cache levels can be unified by pointing a level of the instruction cache
  hierarchy at the data cache hiearchy using the "dl1" and "dl2" cache
  configuration arguments.  Most sensible combinations are supported, e.g.,

    A unified l2 cache (il2 is pointed at dl2):
      -cache:il1 il1:128:64:1:l -cache:il2 dl2
      -cache:dl1 dl1:256:32:1:l -cache:dl2 ul2:1024:64:2:l

    Or, a fully unified cache hierarchy (il1 pointed at dl1):
      -cache:il1 dl1
      -cache:dl1 ul1:256:32:1:l -cache:dl2 ul2:1024:64:2:l



sim: ** starting performance simulation **

sim: ** simulation statistics **
sim_num_insn              100000002 # total number of instructions committed
sim_num_refs               45680045 # total number of loads and stores committed
sim_num_loads              29662892 # total number of loads committed
sim_num_stores         16017153.0000 # total number of stores committed
sim_num_branches            2494454 # total number of branches committed
sim_elapsed_time                149 # total simulation time in seconds
sim_inst_rate           671140.9530 # simulation speed (in insts/sec)
sim_total_insn            100000002 # total number of instructions executed
sim_total_refs             45680045 # total number of loads and stores executed
sim_total_loads            29662892 # total number of loads executed
sim_total_stores       16017153.0000 # total number of stores executed
sim_total_branches          2494454 # total number of branches executed
sim_cycle                  70203265 # total simulation time in cycles
sim_IPC                      1.4244 # instructions per cycle
sim_CPI                      0.7020 # cycles per instruction
sim_exec_BW                  1.4244 # total instructions (mis-spec + committed) per cycle
sim_IPB                     40.0889 # instruction per branch
IFQ_count                1050697104 # cumulative IFQ occupancy
IFQ_fcount                 63454073 # cumulative IFQ full count
ifq_occupancy               14.9665 # avg IFQ occupancy (insn's)
ifq_rate                     1.4244 # avg IFQ dispatch rate (insn/cycle)
ifq_latency                 10.5070 # avg IFQ occupant latency (cycle's)
ifq_full                     0.9039 # fraction of time (cycle's) IFQ was full
RUU_count                1289028971 # cumulative RUU occupancy
RUU_fcount                    68405 # cumulative RUU full count
ruu_occupancy               18.3614 # avg RUU occupancy (insn's)
ruu_rate                     1.4244 # avg RUU dispatch rate (insn/cycle)
ruu_latency                 12.8903 # avg RUU occupant latency (cycle's)
ruu_full                     0.0010 # fraction of time (cycle's) RUU was full
LSQ_count                 532941491 # cumulative LSQ occupancy
LSQ_fcount                 64182466 # cumulative LSQ full count
lsq_occupancy                7.5914 # avg LSQ occupancy (insn's)
lsq_rate                     1.4244 # avg LSQ dispatch rate (insn/cycle)
lsq_latency                  5.3294 # avg LSQ occupant latency (cycle's)
lsq_full                     0.9142 # fraction of time (cycle's) LSQ was full
sim_slip                 1967650467 # total number of slip cycles
avg_sim_slip                19.6765 # the average slip between issue and retirement
il1.accesses              123433689 # total number of accesses
il1.hits                  121426378 # total number of hits
il1.misses                  2007311 # total number of misses
il1.replacements            2007060 # total number of replacements
il1.writebacks                    0 # total number of writebacks
il1.invalidations                 0 # total number of invalidations
il1.miss_rate                0.0163 # miss rate (i.e., misses/ref)
il1.repl_rate                0.0163 # replacement rate (i.e., repls/ref)
il1.wb_rate                  0.0000 # writeback rate (i.e., wrbks/ref)
il1.inv_rate                 0.0000 # invalidation rate (i.e., invs/ref)
dl1.accesses               45096627 # total number of accesses
dl1.hits                   44568532 # total number of hits
dl1.misses                   528095 # total number of misses
dl1.replacements             527839 # total number of replacements
dl1.writebacks               299131 # total number of writebacks
dl1.invalidations                 0 # total number of invalidations
dl1.miss_rate                0.0117 # miss rate (i.e., misses/ref)
dl1.repl_rate                0.0117 # replacement rate (i.e., repls/ref)
dl1.wb_rate                  0.0066 # writeback rate (i.e., wrbks/ref)
dl1.inv_rate                 0.0000 # invalidation rate (i.e., invs/ref)
dl2.accesses                2834537 # total number of accesses
dl2.hits                    2485565 # total number of hits
dl2.misses                   348972 # total number of misses
dl2.replacements             346924 # total number of replacements
dl2.writebacks               181596 # total number of writebacks
dl2.invalidations                 0 # total number of invalidations
dl2.miss_rate                0.1231 # miss rate (i.e., misses/ref)
dl2.repl_rate                0.1224 # replacement rate (i.e., repls/ref)
dl2.wb_rate                  0.0641 # writeback rate (i.e., wrbks/ref)
dl2.inv_rate                 0.0000 # invalidation rate (i.e., invs/ref)
itlb.accesses             123433689 # total number of accesses
itlb.hits                 123433679 # total number of hits
itlb.misses                      10 # total number of misses
itlb.replacements                 0 # total number of replacements
itlb.writebacks                   0 # total number of writebacks
itlb.invalidations                0 # total number of invalidations
itlb.miss_rate               0.0000 # miss rate (i.e., misses/ref)
itlb.repl_rate               0.0000 # replacement rate (i.e., repls/ref)
itlb.wb_rate                 0.0000 # writeback rate (i.e., wrbks/ref)
itlb.inv_rate                0.0000 # invalidation rate (i.e., invs/ref)
dtlb.accesses              45680037 # total number of accesses
dtlb.hits                  45668544 # total number of hits
dtlb.misses                   11493 # total number of misses
dtlb.replacements             11365 # total number of replacements
dtlb.writebacks                   0 # total number of writebacks
dtlb.invalidations                0 # total number of invalidations
dtlb.miss_rate               0.0003 # miss rate (i.e., misses/ref)
dtlb.repl_rate               0.0002 # replacement rate (i.e., repls/ref)
dtlb.wb_rate                 0.0000 # writeback rate (i.e., wrbks/ref)
dtlb.inv_rate                0.0000 # invalidation rate (i.e., invs/ref)
rename_power           229615118.7872 # total power usage of rename unit
bpred_power            234232387.4333 # total power usage of bpred unit
window_power           3033906380.7535 # total power usage of instruction window
lsq_power              273506894.8455 # total power usage of load/store queue
regfile_power          1764821814.4993 # total power usage of arch. regfile
icache_power           212902927.6889 # total power usage of icache
dcache_power           904063334.8727 # total power usage of dcache
dcache2_power          217839100.4555 # total power usage of dcache2
alu_power              2332308341.1434 # total power usage of alu
falu_power             2005151967.3316 # total power usage of falu
resultbus_power        2199336040.6300 # total power usage of resultbus
clock_power            4342495229.6075 # total power usage of clock
avg_rename_power             3.2707 # avg power usage of rename unit
avg_bpred_power              3.3365 # avg power usage of bpred unit
avg_window_power            43.2160 # avg power usage of instruction window
avg_lsq_power                3.8959 # avg power usage of lsq
avg_regfile_power           25.1387 # avg power usage of arch. regfile
avg_icache_power             3.0327 # avg power usage of icache
avg_dcache_power            12.8778 # avg power usage of dcache
avg_dcache2_power            3.1030 # avg power usage of dcache2
avg_alu_power               33.2222 # avg power usage of alu
avg_falu_power              28.5621 # avg power usage of falu
avg_resultbus_power         31.3281 # avg power usage of resultbus
avg_clock_power             61.8560 # avg power usage of clock
fetch_stage_power      447135315.1222 # total power usage of fetch stage
dispatch_stage_power   229615118.7872 # total power usage of dispatch stage
issue_stage_power      8960960092.7006 # total power usage of issue stage
avg_fetch_power              6.3692 # average power of fetch unit per cycle
avg_dispatch_power           3.2707 # average power of dispatch unit per cycle
avg_issue_power            127.6431 # average power of issue unit per cycle
total_power            15745027570.7169 # total power per cycle
avg_total_power_cycle      224.2777 # average total power per cycle
avg_total_power_cycle_nofp_nod2     192.6126 # average total power per cycle
avg_total_power_insn       157.4503 # average total power per insn
avg_total_power_insn_nofp_nod2     135.2204 # average total power per insn
rename_power_cc1       64740075.8371 # total power usage of rename unit_cc1
bpred_power_cc1              0.0000 # total power usage of bpred unit_cc1
window_power_cc1       1499645656.0031 # total power usage of instruction window_cc1
lsq_power_cc1          43799749.3024 # total power usage of lsq_cc1
regfile_power_cc1      589969725.5553 # total power usage of arch. regfile_cc1
icache_power_cc1       60087328.0609 # total power usage of icache_cc1
dcache_power_cc1       297936853.3032 # total power usage of dcache_cc1
dcache2_power_cc1      7718009.3013 # total power usage of dcache2_cc1
alu_power_cc1          629378260.6913 # total power usage of alu_cc1
resultbus_power_cc1    1035172453.8499 # total power usage of resultbus_cc1
clock_power_cc1        1635454429.4824 # total power usage of clock_cc1
avg_rename_power_cc1         0.9222 # avg power usage of rename unit_cc1
avg_bpred_power_cc1          0.0000 # avg power usage of bpred unit_cc1
avg_window_power_cc1        21.3615 # avg power usage of instruction window_cc1
avg_lsq_power_cc1            0.6239 # avg power usage of lsq_cc1
avg_regfile_power_cc1        8.4037 # avg power usage of arch. regfile_cc1
avg_icache_power_cc1         0.8559 # avg power usage of icache_cc1
avg_dcache_power_cc1         4.2439 # avg power usage of dcache_cc1
avg_dcache2_power_cc1        0.1099 # avg power usage of dcache2_cc1
avg_alu_power_cc1            8.9651 # avg power usage of alu_cc1
avg_resultbus_power_cc1      14.7454 # avg power usage of resultbus_cc1
avg_clock_power_cc1         23.2960 # avg power usage of clock_cc1
fetch_stage_power_cc1  60087328.0609 # total power usage of fetch stage_cc1
dispatch_stage_power_cc1 64740075.8371 # total power usage of dispatch stage_cc1
issue_stage_power_cc1  3513650982.4512 # total power usage of issue stage_cc1
avg_fetch_power_cc1          0.8559 # average power of fetch unit per cycle_cc1
avg_dispatch_power_cc1       0.9222 # average power of dispatch unit per cycle_cc1
avg_issue_power_cc1         50.0497 # average power of issue unit per cycle_cc1
total_power_cycle_cc1  5863902541.3869 # total power per cycle_cc1
avg_total_power_cycle_cc1      83.5275 # average total power per cycle_cc1
avg_total_power_insn_cc1      58.6390 # average total power per insn_cc1
rename_power_cc2       20441991.1636 # total power usage of rename unit_cc2
bpred_power_cc2              0.0000 # total power usage of bpred unit_cc2
window_power_cc2       421596019.6998 # total power usage of instruction window_cc2
lsq_power_cc2          18013138.4319 # total power usage of lsq_cc2
regfile_power_cc2      90212337.4185 # total power usage of arch. regfile_cc2
icache_power_cc2       60087328.0609 # total power usage of icache_cc2
dcache_power_cc2       145186291.9937 # total power usage of dcache_cc2
dcache2_power_cc2      2198875.6177 # total power usage of dcache2_cc2
alu_power_cc2          199366994.0420 # total power usage of alu_cc2
resultbus_power_cc2    233434394.4310 # total power usage of resultbus_cc2
clock_power_cc2        460443758.7365 # total power usage of clock_cc2
avg_rename_power_cc2         0.2912 # avg power usage of rename unit_cc2
avg_bpred_power_cc2          0.0000 # avg power usage of bpred unit_cc2
avg_window_power_cc2         6.0054 # avg power usage of instruction window_cc2
avg_lsq_power_cc2            0.2566 # avg power usage of instruction lsq_cc2
avg_regfile_power_cc2        1.2850 # avg power usage of arch. regfile_cc2
avg_icache_power_cc2         0.8559 # avg power usage of icache_cc2
avg_dcache_power_cc2         2.0681 # avg power usage of dcache_cc2
avg_dcache2_power_cc2        0.0313 # avg power usage of dcache2_cc2
avg_alu_power_cc2            2.8399 # avg power usage of alu_cc2
avg_resultbus_power_cc2       3.3251 # avg power usage of resultbus_cc2
avg_clock_power_cc2          6.5587 # avg power usage of clock_cc2
fetch_stage_power_cc2  60087328.0609 # total power usage of fetch stage_cc2
dispatch_stage_power_cc2 20441991.1636 # total power usage of dispatch stage_cc2
issue_stage_power_cc2  1019795714.2161 # total power usage of issue stage_cc2
avg_fetch_power_cc2          0.8559 # average power of fetch unit per cycle_cc2
avg_dispatch_power_cc2       0.2912 # average power of dispatch unit per cycle_cc2
avg_issue_power_cc2         14.5263 # average power of issue unit per cycle_cc2
total_power_cycle_cc2  1650981129.5957 # total power per cycle_cc2
avg_total_power_cycle_cc2      23.5172 # average total power per cycle_cc2
avg_total_power_insn_cc2      16.5098 # average total power per insn_cc2
rename_power_cc3       36929495.5242 # total power usage of rename unit_cc3
bpred_power_cc3        23423238.7697 # total power usage of bpred unit_cc3
window_power_cc3       557866691.9025 # total power usage of instruction window_cc3
lsq_power_cc3          40432276.5428 # total power usage of lsq_cc3
regfile_power_cc3      200516964.6355 # total power usage of arch. regfile_cc3
icache_power_cc3       75368888.1249 # total power usage of icache_cc3
dcache_power_cc3       205979626.9720 # total power usage of dcache_cc3
dcache2_power_cc3      23211028.4710 # total power usage of dcache2_cc3
alu_power_cc3          369660001.9480 # total power usage of alu_cc3
resultbus_power_cc3    342949602.9340 # total power usage of resultbus_cc3
clock_power_cc3        718930131.6398 # total power usage of clock_cc3
avg_rename_power_cc3         0.5260 # avg power usage of rename unit_cc3
avg_bpred_power_cc3          0.3336 # avg power usage of bpred unit_cc3
avg_window_power_cc3         7.9464 # avg power usage of instruction window_cc3
avg_lsq_power_cc3            0.5759 # avg power usage of instruction lsq_cc3
avg_regfile_power_cc3        2.8562 # avg power usage of arch. regfile_cc3
avg_icache_power_cc3         1.0736 # avg power usage of icache_cc3
avg_dcache_power_cc3         2.9340 # avg power usage of dcache_cc3
avg_dcache2_power_cc3        0.3306 # avg power usage of dcache2_cc3
avg_alu_power_cc3            5.2656 # avg power usage of alu_cc3
avg_resultbus_power_cc3       4.8851 # avg power usage of resultbus_cc3
avg_clock_power_cc3         10.2407 # avg power usage of clock_cc3
fetch_stage_power_cc3  98792126.8946 # total power usage of fetch stage_cc3
dispatch_stage_power_cc3 36929495.5242 # total power usage of dispatch stage_cc3
issue_stage_power_cc3  1540099228.7701 # total power usage of issue stage_cc3
avg_fetch_power_cc3          1.4072 # average power of fetch unit per cycle_cc3
avg_dispatch_power_cc3       0.5260 # average power of dispatch unit per cycle_cc3
avg_issue_power_cc3         21.9377 # average power of issue unit per cycle_cc3
total_power_cycle_cc3  2595267947.4642 # total power per cycle_cc3
avg_total_power_cycle_cc3      36.9679 # average total power per cycle_cc3
avg_total_power_insn_cc3      25.9527 # average total power per insn_cc3
total_rename_access       100000002 # total number accesses of rename unit
total_bpred_access                0 # total number accesses of bpred unit
total_window_access       409265767 # total number accesses of instruction window
total_lsq_access           46263447 # total number accesses of load/store queue
total_regfile_access      195835164 # total number accesses of arch. regfile
total_icache_access       123433689 # total number accesses of icache
total_dcache_access        45096627 # total number accesses of dcache
total_dcache2_access        2834537 # total number accesses of dcache2
total_alu_access           99729985 # total number accesses of alu
total_resultbus_access    127168419 # total number accesses of resultbus
avg_rename_access            1.4244 # avg number accesses of rename unit
avg_bpred_access             0.0000 # avg number accesses of bpred unit
avg_window_access            5.8297 # avg number accesses of instruction window
avg_lsq_access               0.6590 # avg number accesses of lsq
avg_regfile_access           2.7895 # avg number accesses of arch. regfile
avg_icache_access            1.7582 # avg number accesses of icache
avg_dcache_access            0.6424 # avg number accesses of dcache
avg_dcache2_access           0.0404 # avg number accesses of dcache2
avg_alu_access               1.4206 # avg number accesses of alu
avg_resultbus_access         1.8114 # avg number accesses of resultbus
max_rename_access                16 # max number accesses of rename unit
max_bpred_access                  0 # max number accesses of bpred unit
max_window_access                36 # max number accesses of instruction window
max_lsq_access                    8 # max number accesses of load/store queue
max_regfile_access               43 # max number accesses of arch. regfile
max_icache_access                16 # max number accesses of icache
max_dcache_access                 7 # max number accesses of dcache
max_dcache2_access                7 # max number accesses of dcache2
max_alu_access                   14 # max number accesses of alu
max_resultbus_access             14 # max number accesses of resultbus
max_cycle_power_cc1        172.9952 # maximum cycle power usage of cc1
max_cycle_power_cc2         96.3286 # maximum cycle power usage of cc2
max_cycle_power_cc3        100.8081 # maximum cycle power usage of cc3
sim_invalid_addrs                 0 # total non-speculative bogus addresses seen (debug var)
ld_text_base           0x0120000000 # program text (code) segment base
ld_text_size                1867776 # program text (code) size in bytes
ld_data_base           0x0140000000 # program initialized data segment base
ld_data_size                 373328 # program init'ed `.data' and uninit'ed `.bss' size in bytes
ld_stack_base          0x011ff9b000 # program stack segment base (highest address in stack)
ld_stack_size                 16384 # program initial stack size
ld_prog_entry          0x0120069a70 # program entry point (initial PC)
ld_environ_base        0x011ff96440 # program environment base address address
ld_target_big_endian              0 # target executable endian-ness, non-zero if big endian
mem.page_count                13429 # total number of pages allocated
mem.page_mem                107432k # total size of memory pages allocated
mem.ptab_misses              283628 # total first level page table misses
mem.ptab_accesses        1181740530 # total page table accesses
mem.ptab_miss_rate           0.0002 # first level page table miss rate

