sim-outorder: SimpleScalar/Alpha Tool Set version 3.0 of August, 2003.
Copyright (c) 1994-2003 by Todd M. Austin, Ph.D. and SimpleScalar, LLC.
All Rights Reserved. This version of SimpleScalar is licensed for academic
non-commercial use.  No portion of this work may be used by any commercial
entity, or for any commercial purpose, without the prior written permission
of SimpleScalar, LLC (info@simplescalar.com).


Processor Parameters:
Issue Width: 16
Window Size: 64
Number of Virtual Registers: 32
Number of Physical Registers: 64
Datapath Width: 64
Total Power Consumption: 226.278
Branch Predictor Power Consumption: 3.33649  (1.49%)
 branch target buffer power (W): 2.49493
 local predict power (W): 0.574771
 global predict power (W): 0.0996078
 chooser power (W): 0.0702439
 RAS power (W): 0.0969383
Rename Logic Power Consumption: 3.27072  (1.46%)
 Instruction Decode Power (W): 0.0639661
 RAT decode_power (W): 0.454058
 RAT wordline_power (W): 0.227603
 RAT bitline_power (W): 2.30694
 DCL Comparators (W): 0.218151
Instruction Window Power Consumption: 43.216  (19.3%)
 tagdrive (W): 2.9395
 tagmatch (W): 0.989695
 Selection Logic (W): 0.225484
 decode_power (W): 0.976583
 wordline_power (W): 1.0557
 bitline_power (W): 37.0291
Load/Store Queue Power Consumption: 3.89593  (1.74%)
 tagdrive (W): 0.980932
 tagmatch (W): 0.214942
 decode_power (W): 0.0159915
 wordline_power (W): 0.0433172
 bitline_power (W): 2.64075
Arch. Register File Power Consumption: 25.1387  (11.2%)
 decode_power (W): 0.454058
 wordline_power (W): 1.0557
 bitline_power (W): 23.629
Result Bus Power Consumption: 31.3281  (14%)
Total Clock Power: 61.856  (27.6%)
Int ALU Power: 4.66013  (2.08%)
FP ALU Power: 28.5621  (12.7%)
Instruction Cache Power Consumption: 2.76773  (1.23%)
 decode_power (W): 0.151353
 wordline_power (W): 0.180479
 bitline_power (W): 1.42251
 senseamp_power (W): 0.768
 tagarray_power (W): 0.245382
Itlb_power (W): 0.264936 (0.118%)
Data Cache Power Consumption: 11.0709  (4.94%)
 decode_power (W): 0.60541
 wordline_power (W): 0.721917
 bitline_power (W): 5.69006
 senseamp_power (W): 3.072
 tagarray_power (W): 0.981529
Dtlb_power (W): 1.80688 (0.806%)
Level 2 Cache Power Consumption: 3.10298 (1.38%)
 decode_power (W): 0.19487
 wordline_power (W): 0.0430878
 bitline_power (W): 1.77274
 senseamp_power (W): 0.192
 tagarray_power (W): 0.900275
sim: loading EIO file: ../benchmarks/255.vortex.three-ref.eio.gz
sim: command line: ./sim-outorder -config ../configs/current.config ../benchmarks/255.vortex.three-ref.eio.gz 

sim: simulation started @ Tue Nov 24 11:24:27 2015, options follow:

sim-outorder: This simulator implements a very detailed out-of-order issue
superscalar processor with a two-level memory system and speculative
execution support.  This simulator is a performance simulator, tracking the
latency of all pipeline operations.

# -config                     # load configuration from a file
# -dumpconfig                 # dump configuration to a file
# -h                    false # print help message    
# -v                    false # verbose operation     
# -d                    false # enable debug message  
# -i                    false # start in Dlite debugger
-seed                       1 # random number generator seed (0 for timer seed)
# -q                    false # initialize and terminate immediately
# -chkpt               <null> # restore EIO trace execution from <fname>
# -redir:sim     ../results/20_19_fus/255.vortex.three-ref.eio.gz.out # redirect simulator output to file (non-interactive only)
# -redir:prog       /dev/null # redirect simulated program output to file
-nice                       0 # simulator scheduling priority
-freq            600000000.0000 # frequency             
-max:inst           100000000 # maximum number of inst's to execute
-fastfwd                    0 # number of insts skipped before timing starts
# -ptrace              <null> # generate pipetrace, i.e., <fname|stdout|stderr> <range>
-fetch:ifqsize             16 # instruction fetch queue size (in insts)
-fetch:mplat               15 # extra branch mis-prediction latency
-fetch:speed                1 # speed of front-end of machine relative to execution core
-bpred                perfect # branch predictor type {nottaken|taken|perfect|bimod|2lev|comb}
-bpred:bimod     2048 # bimodal predictor config (<table size>)
-bpred:2lev      1 16384 4 0 # 2-level predictor config (<l1size> <l2size> <hist_size> <xor>)
-bpred:comb      1024 # combining predictor config (<meta_table_size>)
-bpred:ras                  8 # return address stack size (0 for no return stack)
-bpred:btb       512 4 # BTB config (<num_sets> <associativity>)
# -bpred:spec_update       <null> # speculative predictors update in {ID|WB} (default non-spec)
-decode:width              16 # instruction decode B/W (insts/cycle)
-issue:width               16 # instruction issue B/W (insts/cycle)
-issue:inorder          false # run pipeline with in-order issue
-issue:wrongpath         true # issue instructions down wrong execution paths
-commit:width              16 # instruction commit B/W (insts/cycle)
-ruu:size                  64 # register update unit (RUU) size
-lsq:size                   8 # load/store queue (LSQ) size
-cache:dl1       dl1:32:64:8:f # l1 data cache config, i.e., {<config>|none}
-cache:dl1lat               1 # l1 data cache hit latency (in cycles)
-cache:dl2       dl2:256:64:8:f # l2 data cache config, i.e., {<config>|none}
-cache:dl2lat               2 # l2 data cache hit latency (in cycles)
-cache:il1       il1:32:64:8:f # l1 inst cache config, i.e., {<config>|dl1|dl2|none}
-cache:il1lat               1 # l1 instruction cache hit latency (in cycles)
-cache:il2                dl2 # l2 instruction cache config, i.e., {<config>|dl2|none}
-cache:il2lat               2 # l2 instruction cache hit latency (in cycles)
-cache:flush            false # flush caches on system calls
-cache:icompress        false # convert 64-bit inst addresses to 32-bit inst equivalents
-mem:lat         103 1 # memory access latency (<first_chunk> <inter_chunk>)
-mem:width                  8 # memory access bus width (in bytes)
-tlb:itlb        itlb:16:4096:4:l # instruction TLB config, i.e., {<config>|none}
-tlb:dtlb        dtlb:32:4096:4:l # data TLB config, i.e., {<config>|none}
-tlb:lat                   30 # inst/data TLB miss latency (in cycles)
-res:ialu                   4 # total number of integer ALU's available
-res:imult                  2 # total number of integer multiplier/dividers available
-res:memport                4 # total number of memory system ports available (to CPU)
-res:fpalu                  8 # total number of floating point ALU's available
-res:fpmult                 2 # total number of floating point multiplier/dividers available
# -pcstat              <null> # profile stat(s) against text addr's (mult uses ok)
-bugcompat              false # operate in backward-compatible bugs mode (for testing only)

  Pipetrace range arguments are formatted as follows:

    {{@|#}<start>}:{{@|#|+}<end>}

  Both ends of the range are optional, if neither are specified, the entire
  execution is traced.  Ranges that start with a `@' designate an address
  range to be traced, those that start with an `#' designate a cycle count
  range.  All other range values represent an instruction count range.  The
  second argument, if specified with a `+', indicates a value relative
  to the first argument, e.g., 1000:+100 == 1000:1100.  Program symbols may
  be used in all contexts.

    Examples:   -ptrace FOO.trc #0:#1000
                -ptrace BAR.trc @2000:
                -ptrace BLAH.trc :1500
                -ptrace UXXE.trc :
                -ptrace FOOBAR.trc @main:+278

  Branch predictor configuration examples for 2-level predictor:
    Configurations:   N, M, W, X
      N   # entries in first level (# of shift register(s))
      W   width of shift register(s)
      M   # entries in 2nd level (# of counters, or other FSM)
      X   (yes-1/no-0) xor history and address for 2nd level index
    Sample predictors:
      GAg     : 1, W, 2^W, 0
      GAp     : 1, W, M (M > 2^W), 0
      PAg     : N, W, 2^W, 0
      PAp     : N, W, M (M == 2^(N+W)), 0
      gshare  : 1, W, 2^W, 1
  Predictor `comb' combines a bimodal and a 2-level predictor.

  The cache config parameter <config> has the following format:

    <name>:<nsets>:<bsize>:<assoc>:<repl>

    <name>   - name of the cache being defined
    <nsets>  - number of sets in the cache
    <bsize>  - block size of the cache
    <assoc>  - associativity of the cache
    <repl>   - block replacement strategy, 'l'-LRU, 'f'-FIFO, 'r'-random

    Examples:   -cache:dl1 dl1:4096:32:1:l
                -dtlb dtlb:128:4096:32:r

  Cache levels can be unified by pointing a level of the instruction cache
  hierarchy at the data cache hiearchy using the "dl1" and "dl2" cache
  configuration arguments.  Most sensible combinations are supported, e.g.,

    A unified l2 cache (il2 is pointed at dl2):
      -cache:il1 il1:128:64:1:l -cache:il2 dl2
      -cache:dl1 dl1:256:32:1:l -cache:dl2 ul2:1024:64:2:l

    Or, a fully unified cache hierarchy (il1 pointed at dl1):
      -cache:il1 dl1
      -cache:dl1 ul1:256:32:1:l -cache:dl2 ul2:1024:64:2:l



sim: ** starting performance simulation **

sim: ** simulation statistics **
sim_num_insn              100000002 # total number of instructions committed
sim_num_refs               44791264 # total number of loads and stores committed
sim_num_loads              27919557 # total number of loads committed
sim_num_stores         16871707.0000 # total number of stores committed
sim_num_branches           15797762 # total number of branches committed
sim_elapsed_time                132 # total simulation time in seconds
sim_inst_rate           757575.7727 # simulation speed (in insts/sec)
sim_total_insn            100000002 # total number of instructions executed
sim_total_refs             44791264 # total number of loads and stores executed
sim_total_loads            27919557 # total number of loads executed
sim_total_stores       16871707.0000 # total number of stores executed
sim_total_branches         15797762 # total number of branches executed
sim_cycle                 118737155 # total simulation time in cycles
sim_IPC                      0.8422 # instructions per cycle
sim_CPI                      1.1874 # cycles per instruction
sim_exec_BW                  0.8422 # total instructions (mis-spec + committed) per cycle
sim_IPB                      6.3300 # instruction per branch
IFQ_count                1005505102 # cumulative IFQ occupancy
IFQ_fcount                 60231965 # cumulative IFQ full count
ifq_occupancy                8.4683 # avg IFQ occupancy (insn's)
ifq_rate                     0.8422 # avg IFQ dispatch rate (insn/cycle)
ifq_latency                 10.0551 # avg IFQ occupant latency (cycle's)
ifq_full                     0.5073 # fraction of time (cycle's) IFQ was full
RUU_count                1227062074 # cumulative RUU occupancy
RUU_fcount                   158059 # cumulative RUU full count
ruu_occupancy               10.3343 # avg RUU occupancy (insn's)
ruu_rate                     0.8422 # avg RUU dispatch rate (insn/cycle)
ruu_latency                 12.2706 # avg RUU occupant latency (cycle's)
ruu_full                     0.0013 # fraction of time (cycle's) RUU was full
LSQ_count                 526608433 # cumulative LSQ occupancy
LSQ_fcount                 55257626 # cumulative LSQ full count
lsq_occupancy                4.4351 # avg LSQ occupancy (insn's)
lsq_rate                     0.8422 # avg LSQ dispatch rate (insn/cycle)
lsq_latency                  5.2661 # avg LSQ occupant latency (cycle's)
lsq_full                     0.4654 # fraction of time (cycle's) LSQ was full
sim_slip                 1898461697 # total number of slip cycles
avg_sim_slip                18.9846 # the average slip between issue and retirement
il1.accesses              202446360 # total number of accesses
il1.hits                  199708676 # total number of hits
il1.misses                  2737684 # total number of misses
il1.replacements            2737428 # total number of replacements
il1.writebacks                    0 # total number of writebacks
il1.invalidations                 0 # total number of invalidations
il1.miss_rate                0.0135 # miss rate (i.e., misses/ref)
il1.repl_rate                0.0135 # replacement rate (i.e., repls/ref)
il1.wb_rate                  0.0000 # writeback rate (i.e., wrbks/ref)
il1.inv_rate                 0.0000 # invalidation rate (i.e., invs/ref)
dl1.accesses               44343940 # total number of accesses
dl1.hits                   43262663 # total number of hits
dl1.misses                  1081277 # total number of misses
dl1.replacements            1081021 # total number of replacements
dl1.writebacks               293675 # total number of writebacks
dl1.invalidations                 0 # total number of invalidations
dl1.miss_rate                0.0244 # miss rate (i.e., misses/ref)
dl1.repl_rate                0.0244 # replacement rate (i.e., repls/ref)
dl1.wb_rate                  0.0066 # writeback rate (i.e., wrbks/ref)
dl1.inv_rate                 0.0000 # invalidation rate (i.e., invs/ref)
dl2.accesses                4112636 # total number of accesses
dl2.hits                    3203511 # total number of hits
dl2.misses                   909125 # total number of misses
dl2.replacements             907077 # total number of replacements
dl2.writebacks               145611 # total number of writebacks
dl2.invalidations                 0 # total number of invalidations
dl2.miss_rate                0.2211 # miss rate (i.e., misses/ref)
dl2.repl_rate                0.2206 # replacement rate (i.e., repls/ref)
dl2.wb_rate                  0.0354 # writeback rate (i.e., wrbks/ref)
dl2.inv_rate                 0.0000 # invalidation rate (i.e., invs/ref)
itlb.accesses             202446360 # total number of accesses
itlb.hits                 202396992 # total number of hits
itlb.misses                   49368 # total number of misses
itlb.replacements             49305 # total number of replacements
itlb.writebacks                   0 # total number of writebacks
itlb.invalidations                0 # total number of invalidations
itlb.miss_rate               0.0002 # miss rate (i.e., misses/ref)
itlb.repl_rate               0.0002 # replacement rate (i.e., repls/ref)
itlb.wb_rate                 0.0000 # writeback rate (i.e., wrbks/ref)
itlb.inv_rate                0.0000 # invalidation rate (i.e., invs/ref)
dtlb.accesses              44791261 # total number of accesses
dtlb.hits                  44543615 # total number of hits
dtlb.misses                  247646 # total number of misses
dtlb.replacements            247518 # total number of replacements
dtlb.writebacks                   0 # total number of writebacks
dtlb.invalidations                0 # total number of invalidations
dtlb.miss_rate               0.0055 # miss rate (i.e., misses/ref)
dtlb.repl_rate               0.0055 # replacement rate (i.e., repls/ref)
dtlb.wb_rate                 0.0000 # writeback rate (i.e., wrbks/ref)
dtlb.inv_rate                0.0000 # invalidation rate (i.e., invs/ref)
rename_power           388355811.4112 # total power usage of rename unit
bpred_power            396165155.1542 # total power usage of bpred unit
window_power           5131348400.5043 # total power usage of instruction window
lsq_power              462591457.3206 # total power usage of load/store queue
regfile_power          2984902778.7846 # total power usage of arch. regfile
icache_power           360089917.3984 # total power usage of icache
dcache_power           1529072877.7802 # total power usage of dcache
dcache2_power          368438634.6053 # total power usage of dcache2
alu_power              3944711932.6041 # total power usage of alu
falu_power             3391381297.6811 # total power usage of falu
resultbus_power        3719811373.5738 # total power usage of resultbus
clock_power            7344608961.7068 # total power usage of clock
avg_rename_power             3.2707 # avg power usage of rename unit
avg_bpred_power              3.3365 # avg power usage of bpred unit
avg_window_power            43.2160 # avg power usage of instruction window
avg_lsq_power                3.8959 # avg power usage of lsq
avg_regfile_power           25.1387 # avg power usage of arch. regfile
avg_icache_power             3.0327 # avg power usage of icache
avg_dcache_power            12.8778 # avg power usage of dcache
avg_dcache2_power            3.1030 # avg power usage of dcache2
avg_alu_power               33.2222 # avg power usage of alu
avg_falu_power              28.5621 # avg power usage of falu
avg_resultbus_power         31.3281 # avg power usage of resultbus
avg_clock_power             61.8560 # avg power usage of clock
fetch_stage_power      756255072.5526 # total power usage of fetch stage
dispatch_stage_power   388355811.4112 # total power usage of dispatch stage
issue_stage_power      15155974676.3882 # total power usage of issue stage
avg_fetch_power              6.3692 # average power of fetch unit per cycle
avg_dispatch_power           3.2707 # average power of dispatch unit per cycle
avg_issue_power            127.6431 # average power of issue unit per cycle
total_power            26630097300.8435 # total power per cycle
avg_total_power_cycle      224.2777 # average total power per cycle
avg_total_power_cycle_nofp_nod2     192.6126 # average total power per cycle
avg_total_power_insn       266.3010 # average total power per insn
avg_total_power_insn_nofp_nod2     228.7028 # average total power per insn
rename_power_cc1       78280202.8920 # total power usage of rename unit_cc1
bpred_power_cc1              0.0000 # total power usage of bpred unit_cc1
window_power_cc1       1459739075.4593 # total power usage of instruction window_cc1
lsq_power_cc1          48184144.0068 # total power usage of lsq_cc1
regfile_power_cc1      700703480.3969 # total power usage of arch. regfile_cc1
icache_power_cc1       73547974.8856 # total power usage of icache_cc1
dcache_power_cc1       305921296.1562 # total power usage of dcache_cc1
dcache2_power_cc1      11425331.9150 # total power usage of dcache2_cc1
alu_power_cc1          163635509.7196 # total power usage of alu_cc1
resultbus_power_cc1    1036939300.8577 # total power usage of resultbus_cc1
clock_power_cc1        1493379580.3566 # total power usage of clock_cc1
avg_rename_power_cc1         0.6593 # avg power usage of rename unit_cc1
avg_bpred_power_cc1          0.0000 # avg power usage of bpred unit_cc1
avg_window_power_cc1        12.2939 # avg power usage of instruction window_cc1
avg_lsq_power_cc1            0.4058 # avg power usage of lsq_cc1
avg_regfile_power_cc1        5.9013 # avg power usage of arch. regfile_cc1
avg_icache_power_cc1         0.6194 # avg power usage of icache_cc1
avg_dcache_power_cc1         2.5765 # avg power usage of dcache_cc1
avg_dcache2_power_cc1        0.0962 # avg power usage of dcache2_cc1
avg_alu_power_cc1            1.3781 # avg power usage of alu_cc1
avg_resultbus_power_cc1       8.7331 # avg power usage of resultbus_cc1
avg_clock_power_cc1         12.5772 # avg power usage of clock_cc1
fetch_stage_power_cc1  73547974.8856 # total power usage of fetch stage_cc1
dispatch_stage_power_cc1 78280202.8920 # total power usage of dispatch stage_cc1
issue_stage_power_cc1  3025844658.1146 # total power usage of issue stage_cc1
avg_fetch_power_cc1          0.6194 # average power of fetch unit per cycle_cc1
avg_dispatch_power_cc1       0.6593 # average power of dispatch unit per cycle_cc1
avg_issue_power_cc1         25.4836 # average power of issue unit per cycle_cc1
total_power_cycle_cc1  5371755896.6458 # total power per cycle_cc1
avg_total_power_cycle_cc1      45.2407 # average total power per cycle_cc1
avg_total_power_insn_cc1      53.7176 # average total power per insn_cc1
rename_power_cc2       20441991.1621 # total power usage of rename unit_cc2
bpred_power_cc2              0.0000 # total power usage of bpred unit_cc2
window_power_cc2       408199932.4657 # total power usage of instruction window_cc2
lsq_power_cc2          18917982.6614 # total power usage of lsq_cc2
regfile_power_cc2      64151963.1475 # total power usage of arch. regfile_cc2
icache_power_cc2       73547974.8856 # total power usage of icache_cc2
dcache_power_cc2       142763054.5611 # total power usage of dcache_cc2
dcache2_power_cc2      3190353.4952 # total power usage of dcache2_cc2
alu_power_cc2          116974127.2662 # total power usage of alu_cc2
resultbus_power_cc2    205814320.0052 # total power usage of resultbus_cc2
clock_power_cc2        405760196.8232 # total power usage of clock_cc2
avg_rename_power_cc2         0.1722 # avg power usage of rename unit_cc2
avg_bpred_power_cc2          0.0000 # avg power usage of bpred unit_cc2
avg_window_power_cc2         3.4378 # avg power usage of instruction window_cc2
avg_lsq_power_cc2            0.1593 # avg power usage of instruction lsq_cc2
avg_regfile_power_cc2        0.5403 # avg power usage of arch. regfile_cc2
avg_icache_power_cc2         0.6194 # avg power usage of icache_cc2
avg_dcache_power_cc2         1.2023 # avg power usage of dcache_cc2
avg_dcache2_power_cc2        0.0269 # avg power usage of dcache2_cc2
avg_alu_power_cc2            0.9852 # avg power usage of alu_cc2
avg_resultbus_power_cc2       1.7334 # avg power usage of resultbus_cc2
avg_clock_power_cc2          3.4173 # avg power usage of clock_cc2
fetch_stage_power_cc2  73547974.8856 # total power usage of fetch stage_cc2
dispatch_stage_power_cc2 20441991.1621 # total power usage of dispatch stage_cc2
issue_stage_power_cc2  895859770.4547 # total power usage of issue stage_cc2
avg_fetch_power_cc2          0.6194 # average power of fetch unit per cycle_cc2
avg_dispatch_power_cc2       0.1722 # average power of dispatch unit per cycle_cc2
avg_issue_power_cc2          7.5449 # average power of issue unit per cycle_cc2
total_power_cycle_cc2  1459761896.4730 # total power per cycle_cc2
avg_total_power_cycle_cc2      12.2941 # average total power per cycle_cc2
avg_total_power_insn_cc2      14.5976 # average total power per insn_cc2
rename_power_cc3       51449552.1453 # total power usage of rename unit_cc3
bpred_power_cc3        39616515.5001 # total power usage of bpred unit_cc3
window_power_cc3       758729898.0336 # total power usage of instruction window_cc3
lsq_power_cc3          60129583.4623 # total power usage of lsq_cc3
regfile_power_cc3      284307993.7841 # total power usage of arch. regfile_cc3
icache_power_cc3       102202169.3712 # total power usage of icache_cc3
dcache_power_cc3       265156896.8431 # total power usage of dcache_cc3
dcache2_power_cc3      38891727.4136 # total power usage of dcache2_cc3
alu_power_cc3          495081769.2037 # total power usage of alu_cc3
resultbus_power_cc3    467188598.7623 # total power usage of resultbus_cc3
clock_power_cc3        978543566.0751 # total power usage of clock_cc3
avg_rename_power_cc3         0.4333 # avg power usage of rename unit_cc3
avg_bpred_power_cc3          0.3336 # avg power usage of bpred unit_cc3
avg_window_power_cc3         6.3900 # avg power usage of instruction window_cc3
avg_lsq_power_cc3            0.5064 # avg power usage of instruction lsq_cc3
avg_regfile_power_cc3        2.3944 # avg power usage of arch. regfile_cc3
avg_icache_power_cc3         0.8607 # avg power usage of icache_cc3
avg_dcache_power_cc3         2.2331 # avg power usage of dcache_cc3
avg_dcache2_power_cc3        0.3275 # avg power usage of dcache2_cc3
avg_alu_power_cc3            4.1696 # avg power usage of alu_cc3
avg_resultbus_power_cc3       3.9346 # avg power usage of resultbus_cc3
avg_clock_power_cc3          8.2413 # avg power usage of clock_cc3
fetch_stage_power_cc3  141818684.8713 # total power usage of fetch stage_cc3
dispatch_stage_power_cc3 51449552.1453 # total power usage of dispatch stage_cc3
issue_stage_power_cc3  2085178473.7186 # total power usage of issue stage_cc3
avg_fetch_power_cc3          1.1944 # average power of fetch unit per cycle_cc3
avg_dispatch_power_cc3       0.4333 # average power of dispatch unit per cycle_cc3
avg_issue_power_cc3         17.5613 # average power of issue unit per cycle_cc3
total_power_cycle_cc3  3541298270.5943 # total power per cycle_cc3
avg_total_power_cycle_cc3      29.8247 # average total power per cycle_cc3
avg_total_power_insn_cc3      35.4130 # average total power per insn_cc3
total_rename_access       100000002 # total number accesses of rename unit
total_bpred_access                0 # total number accesses of bpred unit
total_window_access       396972916 # total number accesses of instruction window
total_lsq_access           45238583 # total number accesses of load/store queue
total_regfile_access      138115142 # total number accesses of arch. regfile
total_icache_access       202446360 # total number accesses of icache
total_dcache_access        44343940 # total number accesses of dcache
total_dcache2_access        4112636 # total number accesses of dcache2
total_alu_access           99716952 # total number accesses of alu
total_resultbus_access    112121788 # total number accesses of resultbus
avg_rename_access            0.8422 # avg number accesses of rename unit
avg_bpred_access             0.0000 # avg number accesses of bpred unit
avg_window_access            3.3433 # avg number accesses of instruction window
avg_lsq_access               0.3810 # avg number accesses of lsq
avg_regfile_access           1.1632 # avg number accesses of arch. regfile
avg_icache_access            1.7050 # avg number accesses of icache
avg_dcache_access            0.3735 # avg number accesses of dcache
avg_dcache2_access           0.0346 # avg number accesses of dcache2
avg_alu_access               0.8398 # avg number accesses of alu
avg_resultbus_access         0.9443 # avg number accesses of resultbus
max_rename_access                16 # max number accesses of rename unit
max_bpred_access                  0 # max number accesses of bpred unit
max_window_access                34 # max number accesses of instruction window
max_lsq_access                    8 # max number accesses of load/store queue
max_regfile_access               31 # max number accesses of arch. regfile
max_icache_access                16 # max number accesses of icache
max_dcache_access                 7 # max number accesses of dcache
max_dcache2_access                8 # max number accesses of dcache2
max_alu_access                    6 # max number accesses of alu
max_resultbus_access              9 # max number accesses of resultbus
max_cycle_power_cc1        162.4929 # maximum cycle power usage of cc1
max_cycle_power_cc2         72.5460 # maximum cycle power usage of cc2
max_cycle_power_cc3         80.8212 # maximum cycle power usage of cc3
sim_invalid_addrs                 0 # total non-speculative bogus addresses seen (debug var)
ld_text_base           0x0120000000 # program text (code) segment base
ld_text_size                 819200 # program text (code) size in bytes
ld_data_base           0x0140000000 # program initialized data segment base
ld_data_size                 118976 # program init'ed `.data' and uninit'ed `.bss' size in bytes
ld_stack_base          0x011ff9b000 # program stack segment base (highest address in stack)
ld_stack_size                 16384 # program initial stack size
ld_prog_entry          0x012005fcd0 # program entry point (initial PC)
ld_environ_base        0x011ff95d20 # program environment base address address
ld_target_big_endian              0 # target executable endian-ness, non-zero if big endian
mem.page_count                 8034 # total number of pages allocated
mem.page_mem                 64272k # total size of memory pages allocated
mem.ptab_misses               13148 # total first level page table misses
mem.ptab_accesses        1111187156 # total page table accesses
mem.ptab_miss_rate           0.0000 # first level page table miss rate

