sim-outorder: SimpleScalar/Alpha Tool Set version 3.0 of August, 2003.
Copyright (c) 1994-2003 by Todd M. Austin, Ph.D. and SimpleScalar, LLC.
All Rights Reserved. This version of SimpleScalar is licensed for academic
non-commercial use.  No portion of this work may be used by any commercial
entity, or for any commercial purpose, without the prior written permission
of SimpleScalar, LLC (info@simplescalar.com).


Processor Parameters:
Issue Width: 16
Window Size: 64
Number of Virtual Registers: 32
Number of Physical Registers: 64
Datapath Width: 64
Total Power Consumption: 226.278
Branch Predictor Power Consumption: 3.33649  (1.49%)
 branch target buffer power (W): 2.49493
 local predict power (W): 0.574771
 global predict power (W): 0.0996078
 chooser power (W): 0.0702439
 RAS power (W): 0.0969383
Rename Logic Power Consumption: 3.27072  (1.46%)
 Instruction Decode Power (W): 0.0639661
 RAT decode_power (W): 0.454058
 RAT wordline_power (W): 0.227603
 RAT bitline_power (W): 2.30694
 DCL Comparators (W): 0.218151
Instruction Window Power Consumption: 43.216  (19.3%)
 tagdrive (W): 2.9395
 tagmatch (W): 0.989695
 Selection Logic (W): 0.225484
 decode_power (W): 0.976583
 wordline_power (W): 1.0557
 bitline_power (W): 37.0291
Load/Store Queue Power Consumption: 3.89593  (1.74%)
 tagdrive (W): 0.980932
 tagmatch (W): 0.214942
 decode_power (W): 0.0159915
 wordline_power (W): 0.0433172
 bitline_power (W): 2.64075
Arch. Register File Power Consumption: 25.1387  (11.2%)
 decode_power (W): 0.454058
 wordline_power (W): 1.0557
 bitline_power (W): 23.629
Result Bus Power Consumption: 31.3281  (14%)
Total Clock Power: 61.856  (27.6%)
Int ALU Power: 4.66013  (2.08%)
FP ALU Power: 28.5621  (12.7%)
Instruction Cache Power Consumption: 2.76773  (1.23%)
 decode_power (W): 0.151353
 wordline_power (W): 0.180479
 bitline_power (W): 1.42251
 senseamp_power (W): 0.768
 tagarray_power (W): 0.245382
Itlb_power (W): 0.264936 (0.118%)
Data Cache Power Consumption: 11.0709  (4.94%)
 decode_power (W): 0.60541
 wordline_power (W): 0.721917
 bitline_power (W): 5.69006
 senseamp_power (W): 3.072
 tagarray_power (W): 0.981529
Dtlb_power (W): 1.80688 (0.806%)
Level 2 Cache Power Consumption: 3.10298 (1.38%)
 decode_power (W): 0.19487
 wordline_power (W): 0.0430878
 bitline_power (W): 1.77274
 senseamp_power (W): 0.192
 tagarray_power (W): 0.900275
sim: loading EIO file: ../benchmarks/256.bzip2.graphic-ref.eio.gz
sim: command line: ./sim-outorder -config ../configs/current.config ../benchmarks/256.bzip2.graphic-ref.eio.gz 

sim: simulation started @ Tue Nov 24 11:24:35 2015, options follow:

sim-outorder: This simulator implements a very detailed out-of-order issue
superscalar processor with a two-level memory system and speculative
execution support.  This simulator is a performance simulator, tracking the
latency of all pipeline operations.

# -config                     # load configuration from a file
# -dumpconfig                 # dump configuration to a file
# -h                    false # print help message    
# -v                    false # verbose operation     
# -d                    false # enable debug message  
# -i                    false # start in Dlite debugger
-seed                       1 # random number generator seed (0 for timer seed)
# -q                    false # initialize and terminate immediately
# -chkpt               <null> # restore EIO trace execution from <fname>
# -redir:sim     ../results/20_19_fus/256.bzip2.graphic-ref.eio.gz.out # redirect simulator output to file (non-interactive only)
# -redir:prog       /dev/null # redirect simulated program output to file
-nice                       0 # simulator scheduling priority
-freq            600000000.0000 # frequency             
-max:inst           100000000 # maximum number of inst's to execute
-fastfwd                    0 # number of insts skipped before timing starts
# -ptrace              <null> # generate pipetrace, i.e., <fname|stdout|stderr> <range>
-fetch:ifqsize             16 # instruction fetch queue size (in insts)
-fetch:mplat               15 # extra branch mis-prediction latency
-fetch:speed                1 # speed of front-end of machine relative to execution core
-bpred                perfect # branch predictor type {nottaken|taken|perfect|bimod|2lev|comb}
-bpred:bimod     2048 # bimodal predictor config (<table size>)
-bpred:2lev      1 16384 4 0 # 2-level predictor config (<l1size> <l2size> <hist_size> <xor>)
-bpred:comb      1024 # combining predictor config (<meta_table_size>)
-bpred:ras                  8 # return address stack size (0 for no return stack)
-bpred:btb       512 4 # BTB config (<num_sets> <associativity>)
# -bpred:spec_update       <null> # speculative predictors update in {ID|WB} (default non-spec)
-decode:width              16 # instruction decode B/W (insts/cycle)
-issue:width               16 # instruction issue B/W (insts/cycle)
-issue:inorder          false # run pipeline with in-order issue
-issue:wrongpath         true # issue instructions down wrong execution paths
-commit:width              16 # instruction commit B/W (insts/cycle)
-ruu:size                  64 # register update unit (RUU) size
-lsq:size                   8 # load/store queue (LSQ) size
-cache:dl1       dl1:32:64:8:f # l1 data cache config, i.e., {<config>|none}
-cache:dl1lat               1 # l1 data cache hit latency (in cycles)
-cache:dl2       dl2:256:64:8:f # l2 data cache config, i.e., {<config>|none}
-cache:dl2lat               2 # l2 data cache hit latency (in cycles)
-cache:il1       il1:32:64:8:f # l1 inst cache config, i.e., {<config>|dl1|dl2|none}
-cache:il1lat               1 # l1 instruction cache hit latency (in cycles)
-cache:il2                dl2 # l2 instruction cache config, i.e., {<config>|dl2|none}
-cache:il2lat               2 # l2 instruction cache hit latency (in cycles)
-cache:flush            false # flush caches on system calls
-cache:icompress        false # convert 64-bit inst addresses to 32-bit inst equivalents
-mem:lat         103 1 # memory access latency (<first_chunk> <inter_chunk>)
-mem:width                  8 # memory access bus width (in bytes)
-tlb:itlb        itlb:16:4096:4:l # instruction TLB config, i.e., {<config>|none}
-tlb:dtlb        dtlb:32:4096:4:l # data TLB config, i.e., {<config>|none}
-tlb:lat                   30 # inst/data TLB miss latency (in cycles)
-res:ialu                   4 # total number of integer ALU's available
-res:imult                  2 # total number of integer multiplier/dividers available
-res:memport                4 # total number of memory system ports available (to CPU)
-res:fpalu                  8 # total number of floating point ALU's available
-res:fpmult                 2 # total number of floating point multiplier/dividers available
# -pcstat              <null> # profile stat(s) against text addr's (mult uses ok)
-bugcompat              false # operate in backward-compatible bugs mode (for testing only)

  Pipetrace range arguments are formatted as follows:

    {{@|#}<start>}:{{@|#|+}<end>}

  Both ends of the range are optional, if neither are specified, the entire
  execution is traced.  Ranges that start with a `@' designate an address
  range to be traced, those that start with an `#' designate a cycle count
  range.  All other range values represent an instruction count range.  The
  second argument, if specified with a `+', indicates a value relative
  to the first argument, e.g., 1000:+100 == 1000:1100.  Program symbols may
  be used in all contexts.

    Examples:   -ptrace FOO.trc #0:#1000
                -ptrace BAR.trc @2000:
                -ptrace BLAH.trc :1500
                -ptrace UXXE.trc :
                -ptrace FOOBAR.trc @main:+278

  Branch predictor configuration examples for 2-level predictor:
    Configurations:   N, M, W, X
      N   # entries in first level (# of shift register(s))
      W   width of shift register(s)
      M   # entries in 2nd level (# of counters, or other FSM)
      X   (yes-1/no-0) xor history and address for 2nd level index
    Sample predictors:
      GAg     : 1, W, 2^W, 0
      GAp     : 1, W, M (M > 2^W), 0
      PAg     : N, W, 2^W, 0
      PAp     : N, W, M (M == 2^(N+W)), 0
      gshare  : 1, W, 2^W, 1
  Predictor `comb' combines a bimodal and a 2-level predictor.

  The cache config parameter <config> has the following format:

    <name>:<nsets>:<bsize>:<assoc>:<repl>

    <name>   - name of the cache being defined
    <nsets>  - number of sets in the cache
    <bsize>  - block size of the cache
    <assoc>  - associativity of the cache
    <repl>   - block replacement strategy, 'l'-LRU, 'f'-FIFO, 'r'-random

    Examples:   -cache:dl1 dl1:4096:32:1:l
                -dtlb dtlb:128:4096:32:r

  Cache levels can be unified by pointing a level of the instruction cache
  hierarchy at the data cache hiearchy using the "dl1" and "dl2" cache
  configuration arguments.  Most sensible combinations are supported, e.g.,

    A unified l2 cache (il2 is pointed at dl2):
      -cache:il1 il1:128:64:1:l -cache:il2 dl2
      -cache:dl1 dl1:256:32:1:l -cache:dl2 ul2:1024:64:2:l

    Or, a fully unified cache hierarchy (il1 pointed at dl1):
      -cache:il1 dl1
      -cache:dl1 ul1:256:32:1:l -cache:dl2 ul2:1024:64:2:l



sim: ** starting performance simulation **

sim: ** simulation statistics **
sim_num_insn              100000008 # total number of instructions committed
sim_num_refs               33572805 # total number of loads and stores committed
sim_num_loads              25578544 # total number of loads committed
sim_num_stores         7994261.0000 # total number of stores committed
sim_num_branches           12399644 # total number of branches committed
sim_elapsed_time                 93 # total simulation time in seconds
sim_inst_rate          1075268.9032 # simulation speed (in insts/sec)
sim_total_insn            100000008 # total number of instructions executed
sim_total_refs             33572805 # total number of loads and stores executed
sim_total_loads            25578544 # total number of loads executed
sim_total_stores       7994261.0000 # total number of stores executed
sim_total_branches         12399644 # total number of branches executed
sim_cycle                  31538457 # total simulation time in cycles
sim_IPC                      3.1707 # instructions per cycle
sim_CPI                      0.3154 # cycles per instruction
sim_exec_BW                  3.1707 # total instructions (mis-spec + committed) per cycle
sim_IPB                      8.0647 # instruction per branch
IFQ_count                 504559250 # cumulative IFQ occupancy
IFQ_fcount                 31534937 # cumulative IFQ full count
ifq_occupancy               15.9982 # avg IFQ occupancy (insn's)
ifq_rate                     3.1707 # avg IFQ dispatch rate (insn/cycle)
ifq_latency                  5.0456 # avg IFQ occupant latency (cycle's)
ifq_full                     0.9999 # fraction of time (cycle's) IFQ was full
RUU_count                 628800596 # cumulative RUU occupancy
RUU_fcount                        0 # cumulative RUU full count
ruu_occupancy               19.9376 # avg RUU occupancy (insn's)
ruu_rate                     3.1707 # avg RUU dispatch rate (insn/cycle)
ruu_latency                  6.2880 # avg RUU occupant latency (cycle's)
ruu_full                     0.0000 # fraction of time (cycle's) RUU was full
LSQ_count                 225834137 # cumulative LSQ occupancy
LSQ_fcount                 21135732 # cumulative LSQ full count
lsq_occupancy                7.1606 # avg LSQ occupancy (insn's)
lsq_rate                     3.1707 # avg LSQ dispatch rate (insn/cycle)
lsq_latency                  2.2583 # avg LSQ occupant latency (cycle's)
lsq_full                     0.6702 # fraction of time (cycle's) LSQ was full
sim_slip                  988207436 # total number of slip cycles
avg_sim_slip                 9.8821 # the average slip between issue and retirement
il1.accesses              212277712 # total number of accesses
il1.hits                  212277680 # total number of hits
il1.misses                       32 # total number of misses
il1.replacements                  0 # total number of replacements
il1.writebacks                    0 # total number of writebacks
il1.invalidations                 0 # total number of invalidations
il1.miss_rate                0.0000 # miss rate (i.e., misses/ref)
il1.repl_rate                0.0000 # replacement rate (i.e., repls/ref)
il1.wb_rate                  0.0000 # writeback rate (i.e., wrbks/ref)
il1.inv_rate                 0.0000 # invalidation rate (i.e., invs/ref)
dl1.accesses               33565208 # total number of accesses
dl1.hits                   33550696 # total number of hits
dl1.misses                    14512 # total number of misses
dl1.replacements              14256 # total number of replacements
dl1.writebacks                 6790 # total number of writebacks
dl1.invalidations                 0 # total number of invalidations
dl1.miss_rate                0.0004 # miss rate (i.e., misses/ref)
dl1.repl_rate                0.0004 # replacement rate (i.e., repls/ref)
dl1.wb_rate                  0.0002 # writeback rate (i.e., wrbks/ref)
dl1.inv_rate                 0.0000 # invalidation rate (i.e., invs/ref)
dl2.accesses                  21334 # total number of accesses
dl2.hits                       8402 # total number of hits
dl2.misses                    12932 # total number of misses
dl2.replacements              10884 # total number of replacements
dl2.writebacks                 5382 # total number of writebacks
dl2.invalidations                 0 # total number of invalidations
dl2.miss_rate                0.6062 # miss rate (i.e., misses/ref)
dl2.repl_rate                0.5102 # replacement rate (i.e., repls/ref)
dl2.wb_rate                  0.2523 # writeback rate (i.e., wrbks/ref)
dl2.inv_rate                 0.0000 # invalidation rate (i.e., invs/ref)
itlb.accesses             212277712 # total number of accesses
itlb.hits                 212277710 # total number of hits
itlb.misses                       2 # total number of misses
itlb.replacements                 0 # total number of replacements
itlb.writebacks                   0 # total number of writebacks
itlb.invalidations                0 # total number of invalidations
itlb.miss_rate               0.0000 # miss rate (i.e., misses/ref)
itlb.repl_rate               0.0000 # replacement rate (i.e., repls/ref)
itlb.wb_rate                 0.0000 # writeback rate (i.e., wrbks/ref)
itlb.inv_rate                0.0000 # invalidation rate (i.e., invs/ref)
dtlb.accesses              33572797 # total number of accesses
dtlb.hits                  33572591 # total number of hits
dtlb.misses                     206 # total number of misses
dtlb.replacements                78 # total number of replacements
dtlb.writebacks                   0 # total number of writebacks
dtlb.invalidations                0 # total number of invalidations
dtlb.miss_rate               0.0000 # miss rate (i.e., misses/ref)
dtlb.repl_rate               0.0000 # replacement rate (i.e., repls/ref)
dtlb.wb_rate                 0.0000 # writeback rate (i.e., wrbks/ref)
dtlb.inv_rate                0.0000 # invalidation rate (i.e., invs/ref)
rename_power           103153415.3858 # total power usage of rename unit
bpred_power            105227699.6013 # total power usage of bpred unit
window_power           1362966892.0455 # total power usage of instruction window
lsq_power              122871570.7488 # total power usage of load/store queue
regfile_power          792837155.2101 # total power usage of arch. regfile
icache_power           95645549.2589 # total power usage of icache
dcache_power           406145818.9819 # total power usage of dcache
dcache2_power          97863099.4456 # total power usage of dcache2
alu_power              1047777567.3312 # total power usage of alu
falu_power             900804244.4944 # total power usage of falu
resultbus_power        988040443.9807 # total power usage of resultbus
clock_power            1950843724.9418 # total power usage of clock
avg_rename_power             3.2707 # avg power usage of rename unit
avg_bpred_power              3.3365 # avg power usage of bpred unit
avg_window_power            43.2160 # avg power usage of instruction window
avg_lsq_power                3.8959 # avg power usage of lsq
avg_regfile_power           25.1387 # avg power usage of arch. regfile
avg_icache_power             3.0327 # avg power usage of icache
avg_dcache_power            12.8778 # avg power usage of dcache
avg_dcache2_power            3.1030 # avg power usage of dcache2
avg_alu_power               33.2222 # avg power usage of alu
avg_falu_power              28.5621 # avg power usage of falu
avg_resultbus_power         31.3281 # avg power usage of resultbus
avg_clock_power             61.8560 # avg power usage of clock
fetch_stage_power      200873248.8602 # total power usage of fetch stage
dispatch_stage_power   103153415.3858 # total power usage of dispatch stage
issue_stage_power      4025665392.5337 # total power usage of issue stage
avg_fetch_power              6.3692 # average power of fetch unit per cycle
avg_dispatch_power           3.2707 # average power of dispatch unit per cycle
avg_issue_power            127.6431 # average power of issue unit per cycle
total_power            7073372936.9315 # total power per cycle
avg_total_power_cycle      224.2777 # average total power per cycle
avg_total_power_cycle_nofp_nod2     192.6126 # average total power per cycle
avg_total_power_insn        70.7337 # average total power per insn
avg_total_power_insn_nofp_nod2      60.7471 # average total power per insn
rename_power_cc1       68047854.8689 # total power usage of rename unit_cc1
bpred_power_cc1              0.0000 # total power usage of bpred unit_cc1
window_power_cc1       1203015222.2884 # total power usage of instruction window_cc1
lsq_power_cc1          32378351.1911 # total power usage of lsq_cc1
regfile_power_cc1      618377111.2069 # total power usage of arch. regfile_cc1
icache_power_cc1       63095127.4418 # total power usage of icache_cc1
dcache_power_cc1       262713399.1289 # total power usage of dcache_cc1
dcache2_power_cc1        45120.3852 # total power usage of dcache2_cc1
alu_power_cc1          141848466.6737 # total power usage of alu_cc1
resultbus_power_cc1    895212254.6506 # total power usage of resultbus_cc1
clock_power_cc1        1273871527.2622 # total power usage of clock_cc1
avg_rename_power_cc1         2.1576 # avg power usage of rename unit_cc1
avg_bpred_power_cc1          0.0000 # avg power usage of bpred unit_cc1
avg_window_power_cc1        38.1444 # avg power usage of instruction window_cc1
avg_lsq_power_cc1            1.0266 # avg power usage of lsq_cc1
avg_regfile_power_cc1       19.6071 # avg power usage of arch. regfile_cc1
avg_icache_power_cc1         2.0006 # avg power usage of icache_cc1
avg_dcache_power_cc1         8.3299 # avg power usage of dcache_cc1
avg_dcache2_power_cc1        0.0014 # avg power usage of dcache2_cc1
avg_alu_power_cc1            4.4976 # avg power usage of alu_cc1
avg_resultbus_power_cc1      28.3848 # avg power usage of resultbus_cc1
avg_clock_power_cc1         40.3911 # avg power usage of clock_cc1
fetch_stage_power_cc1  63095127.4418 # total power usage of fetch stage_cc1
dispatch_stage_power_cc1 68047854.8689 # total power usage of dispatch stage_cc1
issue_stage_power_cc1  2535212814.3180 # total power usage of issue stage_cc1
avg_fetch_power_cc1          2.0006 # average power of fetch unit per cycle_cc1
avg_dispatch_power_cc1       2.1576 # average power of dispatch unit per cycle_cc1
avg_issue_power_cc1         80.3848 # average power of issue unit per cycle_cc1
total_power_cycle_cc1  4558604435.0978 # total power per cycle_cc1
avg_total_power_cycle_cc1     144.5411 # average total power per cycle_cc1
avg_total_power_insn_cc1      45.5860 # average total power per insn_cc1
rename_power_cc2       20441992.3895 # total power usage of rename unit_cc2
bpred_power_cc2              0.0000 # total power usage of bpred unit_cc2
window_power_cc2       400992456.6704 # total power usage of instruction window_cc2
lsq_power_cc2          12395178.8684 # total power usage of lsq_cc2
regfile_power_cc2      64113167.6250 # total power usage of arch. regfile_cc2
icache_power_cc2       63095127.4418 # total power usage of icache_cc2
dcache_power_cc2       108061476.2836 # total power usage of dcache_cc2
dcache2_power_cc2        16549.7266 # total power usage of dcache2_cc2
alu_power_cc2          116503242.7424 # total power usage of alu_cc2
resultbus_power_cc2    207754744.3510 # total power usage of resultbus_cc2
clock_power_cc2        385244917.2163 # total power usage of clock_cc2
avg_rename_power_cc2         0.6482 # avg power usage of rename unit_cc2
avg_bpred_power_cc2          0.0000 # avg power usage of bpred unit_cc2
avg_window_power_cc2        12.7144 # avg power usage of instruction window_cc2
avg_lsq_power_cc2            0.3930 # avg power usage of instruction lsq_cc2
avg_regfile_power_cc2        2.0329 # avg power usage of arch. regfile_cc2
avg_icache_power_cc2         2.0006 # avg power usage of icache_cc2
avg_dcache_power_cc2         3.4263 # avg power usage of dcache_cc2
avg_dcache2_power_cc2        0.0005 # avg power usage of dcache2_cc2
avg_alu_power_cc2            3.6940 # avg power usage of alu_cc2
avg_resultbus_power_cc2       6.5873 # avg power usage of resultbus_cc2
avg_clock_power_cc2         12.2151 # avg power usage of clock_cc2
fetch_stage_power_cc2  63095127.4418 # total power usage of fetch stage_cc2
dispatch_stage_power_cc2 20441992.3895 # total power usage of dispatch stage_cc2
issue_stage_power_cc2  845723648.6424 # total power usage of issue stage_cc2
avg_fetch_power_cc2          2.0006 # average power of fetch unit per cycle_cc2
avg_dispatch_power_cc2       0.6482 # average power of dispatch unit per cycle_cc2
avg_issue_power_cc2         26.8156 # average power of issue unit per cycle_cc2
total_power_cycle_cc2  1378618853.3150 # total power per cycle_cc2
avg_total_power_cycle_cc2      43.7123 # average total power per cycle_cc2
avg_total_power_insn_cc2      13.7862 # average total power per insn_cc2
rename_power_cc3       23952548.4535 # total power usage of rename unit_cc3
bpred_power_cc3        10522769.9638 # total power usage of bpred unit_cc3
window_power_cc3       404004714.6732 # total power usage of instruction window_cc3
lsq_power_cc3          21253710.7005 # total power usage of lsq_cc3
regfile_power_cc3      74917967.6678 # total power usage of arch. regfile_cc3
icache_power_cc3       66350169.6365 # total power usage of icache_cc3
dcache_power_cc3       122404728.2716 # total power usage of dcache_cc3
dcache2_power_cc3      9798347.6403 # total power usage of dcache2_cc3
alu_power_cc3          207096152.7191 # total power usage of alu_cc3
resultbus_power_cc3    211069481.4627 # total power usage of resultbus_cc3
clock_power_cc3        442948636.3320 # total power usage of clock_cc3
avg_rename_power_cc3         0.7595 # avg power usage of rename unit_cc3
avg_bpred_power_cc3          0.3336 # avg power usage of bpred unit_cc3
avg_window_power_cc3        12.8099 # avg power usage of instruction window_cc3
avg_lsq_power_cc3            0.6739 # avg power usage of instruction lsq_cc3
avg_regfile_power_cc3        2.3754 # avg power usage of arch. regfile_cc3
avg_icache_power_cc3         2.1038 # avg power usage of icache_cc3
avg_dcache_power_cc3         3.8811 # avg power usage of dcache_cc3
avg_dcache2_power_cc3        0.3107 # avg power usage of dcache2_cc3
avg_alu_power_cc3            6.5665 # avg power usage of alu_cc3
avg_resultbus_power_cc3       6.6924 # avg power usage of resultbus_cc3
avg_clock_power_cc3         14.0447 # avg power usage of clock_cc3
fetch_stage_power_cc3  76872939.6003 # total power usage of fetch stage_cc3
dispatch_stage_power_cc3 23952548.4535 # total power usage of dispatch stage_cc3
issue_stage_power_cc3  975627135.4676 # total power usage of issue stage_cc3
avg_fetch_power_cc3          2.4374 # average power of fetch unit per cycle_cc3
avg_dispatch_power_cc3       0.7595 # average power of dispatch unit per cycle_cc3
avg_issue_power_cc3         30.9345 # average power of issue unit per cycle_cc3
total_power_cycle_cc3  1594319227.5211 # total power per cycle_cc3
avg_total_power_cycle_cc3      50.5516 # average total power per cycle_cc3
avg_total_power_insn_cc3      15.9432 # average total power per insn_cc3
total_rename_access       100000008 # total number accesses of rename unit
total_bpred_access                0 # total number accesses of bpred unit
total_window_access       381844631 # total number accesses of instruction window
total_lsq_access           33580386 # total number accesses of load/store queue
total_regfile_access      135549908 # total number accesses of arch. regfile
total_icache_access       212277712 # total number accesses of icache
total_dcache_access        33565208 # total number accesses of dcache
total_dcache2_access          21334 # total number accesses of dcache2
total_alu_access           99999984 # total number accesses of alu
total_resultbus_access    113178876 # total number accesses of resultbus
avg_rename_access            3.1707 # avg number accesses of rename unit
avg_bpred_access             0.0000 # avg number accesses of bpred unit
avg_window_access           12.1073 # avg number accesses of instruction window
avg_lsq_access               1.0647 # avg number accesses of lsq
avg_regfile_access           4.2979 # avg number accesses of arch. regfile
avg_icache_access            6.7308 # avg number accesses of icache
avg_dcache_access            1.0643 # avg number accesses of dcache
avg_dcache2_access           0.0007 # avg number accesses of dcache2
avg_alu_access               3.1707 # avg number accesses of alu
avg_resultbus_access         3.5886 # avg number accesses of resultbus
max_rename_access                16 # max number accesses of rename unit
max_bpred_access                  0 # max number accesses of bpred unit
max_window_access                31 # max number accesses of instruction window
max_lsq_access                    7 # max number accesses of load/store queue
max_regfile_access               25 # max number accesses of arch. regfile
max_icache_access                16 # max number accesses of icache
max_dcache_access                 5 # max number accesses of dcache
max_dcache2_access                2 # max number accesses of dcache2
max_alu_access                    4 # max number accesses of alu
max_resultbus_access              8 # max number accesses of resultbus
max_cycle_power_cc1        161.3420 # maximum cycle power usage of cc1
max_cycle_power_cc2         71.8305 # maximum cycle power usage of cc2
max_cycle_power_cc3         77.1157 # maximum cycle power usage of cc3
sim_invalid_addrs                 0 # total non-speculative bogus addresses seen (debug var)
ld_text_base           0x0120000000 # program text (code) segment base
ld_text_size                 196608 # program text (code) size in bytes
ld_data_base           0x0140000000 # program initialized data segment base
ld_data_size                 146544 # program init'ed `.data' and uninit'ed `.bss' size in bytes
ld_stack_base          0x011ff9b000 # program stack segment base (highest address in stack)
ld_stack_size                 16384 # program initial stack size
ld_prog_entry          0x012000f684 # program entry point (initial PC)
ld_environ_base        0x011ff96ed0 # program environment base address address
ld_target_big_endian              0 # target executable endian-ness, non-zero if big endian
mem.page_count                23388 # total number of pages allocated
mem.page_mem                187104k # total size of memory pages allocated
mem.ptab_misses               23395 # total first level page table misses
mem.ptab_accesses        1233523828 # total page table accesses
mem.ptab_miss_rate           0.0000 # first level page table miss rate

