sim-outorder: SimpleScalar/Alpha Tool Set version 3.0 of August, 2003.
Copyright (c) 1994-2003 by Todd M. Austin, Ph.D. and SimpleScalar, LLC.
All Rights Reserved. This version of SimpleScalar is licensed for academic
non-commercial use.  No portion of this work may be used by any commercial
entity, or for any commercial purpose, without the prior written permission
of SimpleScalar, LLC (info@simplescalar.com).


Processor Parameters:
Issue Width: 32
Window Size: 16
Number of Virtual Registers: 32
Number of Physical Registers: 16
Datapath Width: 64
Total Power Consumption: 287.872
Branch Predictor Power Consumption: 3.33649  (1.17%)
 branch target buffer power (W): 2.49493
 local predict power (W): 0.574771
 global predict power (W): 0.0996078
 chooser power (W): 0.0702439
 RAS power (W): 0.0969383
Rename Logic Power Consumption: 6.93687  (2.43%)
 Instruction Decode Power (W): 0.127932
 RAT decode_power (W): 0.908115
 RAT wordline_power (W): 0.455623
 RAT bitline_power (W): 4.54351
 DCL Comparators (W): 0.901689
Instruction Window Power Consumption: 52.3166  (18.3%)
 tagdrive (W): 1.70315
 tagmatch (W): 0.455769
 Selection Logic (W): 0.107374
 decode_power (W): 0.426003
 wordline_power (W): 4.02565
 bitline_power (W): 45.5986
Load/Store Queue Power Consumption: 0.963281  (0.337%)
 tagdrive (W): 0.457232
 tagmatch (W): 0.100875
 decode_power (W): 0.00799577
 wordline_power (W): 0.0150119
 bitline_power (W): 0.382166
Arch. Register File Power Consumption: 75.6732  (26.5%)
 decode_power (W): 0.908115
 wordline_power (W): 4.02565
 bitline_power (W): 70.7394
Result Bus Power Consumption: 37.3633  (13.1%)
Total Clock Power: 77.7669  (27.2%)
Int ALU Power: 4.66013  (1.63%)
FP ALU Power: 14.281  (5%)
Instruction Cache Power Consumption: 2.76773  (0.968%)
 decode_power (W): 0.151353
 wordline_power (W): 0.180479
 bitline_power (W): 1.42251
 senseamp_power (W): 0.768
 tagarray_power (W): 0.245382
Itlb_power (W): 0.264936 (0.0927%)
Data Cache Power Consumption: 5.53546  (1.94%)
 decode_power (W): 0.302705
 wordline_power (W): 0.360958
 bitline_power (W): 2.84503
 senseamp_power (W): 1.536
 tagarray_power (W): 0.490764
Dtlb_power (W): 0.903441 (0.316%)
Level 2 Cache Power Consumption: 3.10298 (1.09%)
 decode_power (W): 0.19487
 wordline_power (W): 0.0430878
 bitline_power (W): 1.77274
 senseamp_power (W): 0.192
 tagarray_power (W): 0.900275
sim: loading EIO file: ../benchmarks/164.gzip.program-ref.eio.gz
sim: command line: ./sim-outorder -config ../configs/current.config ../benchmarks/164.gzip.program-ref.eio.gz 

sim: simulation started @ Mon Nov 23 20:58:44 2015, options follow:

sim-outorder: This simulator implements a very detailed out-of-order issue
superscalar processor with a two-level memory system and speculative
execution support.  This simulator is a performance simulator, tracking the
latency of all pipeline operations.

# -config                     # load configuration from a file
# -dumpconfig                 # dump configuration to a file
# -h                    false # print help message    
# -v                    false # verbose operation     
# -d                    false # enable debug message  
# -i                    false # start in Dlite debugger
-seed                       1 # random number generator seed (0 for timer seed)
# -q                    false # initialize and terminate immediately
# -chkpt               <null> # restore EIO trace execution from <fname>
# -redir:sim     ../results/13_12_ugh/164.gzip.program-ref.eio.gz.out # redirect simulator output to file (non-interactive only)
# -redir:prog       /dev/null # redirect simulated program output to file
-nice                       0 # simulator scheduling priority
-freq            600000000.0000 # frequency             
-max:inst           100000000 # maximum number of inst's to execute
-fastfwd                    0 # number of insts skipped before timing starts
# -ptrace              <null> # generate pipetrace, i.e., <fname|stdout|stderr> <range>
-fetch:ifqsize             32 # instruction fetch queue size (in insts)
-fetch:mplat                3 # extra branch mis-prediction latency
-fetch:speed                1 # speed of front-end of machine relative to execution core
-bpred                perfect # branch predictor type {nottaken|taken|perfect|bimod|2lev|comb}
-bpred:bimod     2048 # bimodal predictor config (<table size>)
-bpred:2lev      1 16384 4 0 # 2-level predictor config (<l1size> <l2size> <hist_size> <xor>)
-bpred:comb      1024 # combining predictor config (<meta_table_size>)
-bpred:ras                  8 # return address stack size (0 for no return stack)
-bpred:btb       512 4 # BTB config (<num_sets> <associativity>)
# -bpred:spec_update       <null> # speculative predictors update in {ID|WB} (default non-spec)
-decode:width              32 # instruction decode B/W (insts/cycle)
-issue:width               32 # instruction issue B/W (insts/cycle)
-issue:inorder          false # run pipeline with in-order issue
-issue:wrongpath         true # issue instructions down wrong execution paths
-commit:width               4 # instruction commit B/W (insts/cycle)
-ruu:size                  16 # register update unit (RUU) size
-lsq:size                   8 # load/store queue (LSQ) size
-cache:dl1       dl1:32:64:8:f # l1 data cache config, i.e., {<config>|none}
-cache:dl1lat               1 # l1 data cache hit latency (in cycles)
-cache:dl2       dl2:256:64:8:f # l2 data cache config, i.e., {<config>|none}
-cache:dl2lat               2 # l2 data cache hit latency (in cycles)
-cache:il1       il1:32:64:8:f # l1 inst cache config, i.e., {<config>|dl1|dl2|none}
-cache:il1lat               1 # l1 instruction cache hit latency (in cycles)
-cache:il2                dl2 # l2 instruction cache config, i.e., {<config>|dl2|none}
-cache:il2lat               2 # l2 instruction cache hit latency (in cycles)
-cache:flush            false # flush caches on system calls
-cache:icompress        false # convert 64-bit inst addresses to 32-bit inst equivalents
-mem:lat         103 1 # memory access latency (<first_chunk> <inter_chunk>)
-mem:width                  8 # memory access bus width (in bytes)
-tlb:itlb        itlb:16:4096:4:l # instruction TLB config, i.e., {<config>|none}
-tlb:dtlb        dtlb:32:4096:4:l # data TLB config, i.e., {<config>|none}
-tlb:lat                   30 # inst/data TLB miss latency (in cycles)
-res:ialu                   4 # total number of integer ALU's available
-res:imult                  1 # total number of integer multiplier/dividers available
-res:memport                2 # total number of memory system ports available (to CPU)
-res:fpalu                  4 # total number of floating point ALU's available
-res:fpmult                 1 # total number of floating point multiplier/dividers available
# -pcstat              <null> # profile stat(s) against text addr's (mult uses ok)
-bugcompat              false # operate in backward-compatible bugs mode (for testing only)

  Pipetrace range arguments are formatted as follows:

    {{@|#}<start>}:{{@|#|+}<end>}

  Both ends of the range are optional, if neither are specified, the entire
  execution is traced.  Ranges that start with a `@' designate an address
  range to be traced, those that start with an `#' designate a cycle count
  range.  All other range values represent an instruction count range.  The
  second argument, if specified with a `+', indicates a value relative
  to the first argument, e.g., 1000:+100 == 1000:1100.  Program symbols may
  be used in all contexts.

    Examples:   -ptrace FOO.trc #0:#1000
                -ptrace BAR.trc @2000:
                -ptrace BLAH.trc :1500
                -ptrace UXXE.trc :
                -ptrace FOOBAR.trc @main:+278

  Branch predictor configuration examples for 2-level predictor:
    Configurations:   N, M, W, X
      N   # entries in first level (# of shift register(s))
      W   width of shift register(s)
      M   # entries in 2nd level (# of counters, or other FSM)
      X   (yes-1/no-0) xor history and address for 2nd level index
    Sample predictors:
      GAg     : 1, W, 2^W, 0
      GAp     : 1, W, M (M > 2^W), 0
      PAg     : N, W, 2^W, 0
      PAp     : N, W, M (M == 2^(N+W)), 0
      gshare  : 1, W, 2^W, 1
  Predictor `comb' combines a bimodal and a 2-level predictor.

  The cache config parameter <config> has the following format:

    <name>:<nsets>:<bsize>:<assoc>:<repl>

    <name>   - name of the cache being defined
    <nsets>  - number of sets in the cache
    <bsize>  - block size of the cache
    <assoc>  - associativity of the cache
    <repl>   - block replacement strategy, 'l'-LRU, 'f'-FIFO, 'r'-random

    Examples:   -cache:dl1 dl1:4096:32:1:l
                -dtlb dtlb:128:4096:32:r

  Cache levels can be unified by pointing a level of the instruction cache
  hierarchy at the data cache hiearchy using the "dl1" and "dl2" cache
  configuration arguments.  Most sensible combinations are supported, e.g.,

    A unified l2 cache (il2 is pointed at dl2):
      -cache:il1 il1:128:64:1:l -cache:il2 dl2
      -cache:dl1 dl1:256:32:1:l -cache:dl2 ul2:1024:64:2:l

    Or, a fully unified cache hierarchy (il1 pointed at dl1):
      -cache:il1 dl1
      -cache:dl1 ul1:256:32:1:l -cache:dl2 ul2:1024:64:2:l



sim: ** starting performance simulation **

sim: ** simulation statistics **
sim_num_insn              100000000 # total number of instructions committed
sim_num_refs               27833168 # total number of loads and stores committed
sim_num_loads              24827756 # total number of loads committed
sim_num_stores         3005412.0000 # total number of stores committed
sim_num_branches           13041101 # total number of branches committed
sim_elapsed_time                108 # total simulation time in seconds
sim_inst_rate           925925.9259 # simulation speed (in insts/sec)
sim_total_insn            100000000 # total number of instructions executed
sim_total_refs             27833168 # total number of loads and stores executed
sim_total_loads            24827756 # total number of loads executed
sim_total_stores       3005412.0000 # total number of stores executed
sim_total_branches         13041101 # total number of branches executed
sim_cycle                  61527220 # total simulation time in cycles
sim_IPC                      1.6253 # instructions per cycle
sim_CPI                      0.6153 # cycles per instruction
sim_exec_BW                  1.6253 # total instructions (mis-spec + committed) per cycle
sim_IPB                      7.6681 # instruction per branch
IFQ_count                1968211668 # cumulative IFQ occupancy
IFQ_fcount                 61505880 # cumulative IFQ full count
ifq_occupancy               31.9893 # avg IFQ occupancy (insn's)
ifq_rate                     1.6253 # avg IFQ dispatch rate (insn/cycle)
ifq_latency                 19.6821 # avg IFQ occupant latency (cycle's)
ifq_full                     0.9997 # fraction of time (cycle's) IFQ was full
RUU_count                 966468093 # cumulative RUU occupancy
RUU_fcount                 53374599 # cumulative RUU full count
ruu_occupancy               15.7080 # avg RUU occupancy (insn's)
ruu_rate                     1.6253 # avg RUU dispatch rate (insn/cycle)
ruu_latency                  9.6647 # avg RUU occupant latency (cycle's)
ruu_full                     0.8675 # fraction of time (cycle's) RUU was full
LSQ_count                 292902906 # cumulative LSQ occupancy
LSQ_fcount                  3677013 # cumulative LSQ full count
lsq_occupancy                4.7605 # avg LSQ occupancy (insn's)
lsq_rate                     1.6253 # avg LSQ dispatch rate (insn/cycle)
lsq_latency                  2.9290 # avg LSQ occupant latency (cycle's)
lsq_full                     0.0598 # fraction of time (cycle's) LSQ was full
sim_slip                 1387204034 # total number of slip cycles
avg_sim_slip                13.8720 # the average slip between issue and retirement
il1.accesses              355875707 # total number of accesses
il1.hits                  355875513 # total number of hits
il1.misses                      194 # total number of misses
il1.replacements                  5 # total number of replacements
il1.writebacks                    0 # total number of writebacks
il1.invalidations                 0 # total number of invalidations
il1.miss_rate                0.0000 # miss rate (i.e., misses/ref)
il1.repl_rate                0.0000 # replacement rate (i.e., repls/ref)
il1.wb_rate                  0.0000 # writeback rate (i.e., wrbks/ref)
il1.inv_rate                 0.0000 # invalidation rate (i.e., invs/ref)
dl1.accesses               27728860 # total number of accesses
dl1.hits                   23293169 # total number of hits
dl1.misses                  4435691 # total number of misses
dl1.replacements            4435435 # total number of replacements
dl1.writebacks               348323 # total number of writebacks
dl1.invalidations                 0 # total number of invalidations
dl1.miss_rate                0.1600 # miss rate (i.e., misses/ref)
dl1.repl_rate                0.1600 # replacement rate (i.e., repls/ref)
dl1.wb_rate                  0.0126 # writeback rate (i.e., wrbks/ref)
dl1.inv_rate                 0.0000 # invalidation rate (i.e., invs/ref)
dl2.accesses                4784208 # total number of accesses
dl2.hits                    4605792 # total number of hits
dl2.misses                   178416 # total number of misses
dl2.replacements             176368 # total number of replacements
dl2.writebacks                74689 # total number of writebacks
dl2.invalidations                 0 # total number of invalidations
dl2.miss_rate                0.0373 # miss rate (i.e., misses/ref)
dl2.repl_rate                0.0369 # replacement rate (i.e., repls/ref)
dl2.wb_rate                  0.0156 # writeback rate (i.e., wrbks/ref)
dl2.inv_rate                 0.0000 # invalidation rate (i.e., invs/ref)
itlb.accesses             355875707 # total number of accesses
itlb.hits                 355875698 # total number of hits
itlb.misses                       9 # total number of misses
itlb.replacements                 0 # total number of replacements
itlb.writebacks                   0 # total number of writebacks
itlb.invalidations                0 # total number of invalidations
itlb.miss_rate               0.0000 # miss rate (i.e., misses/ref)
itlb.repl_rate               0.0000 # replacement rate (i.e., repls/ref)
itlb.wb_rate                 0.0000 # writeback rate (i.e., wrbks/ref)
itlb.inv_rate                0.0000 # invalidation rate (i.e., invs/ref)
dtlb.accesses              27833161 # total number of accesses
dtlb.hits                  27833006 # total number of hits
dtlb.misses                     155 # total number of misses
dtlb.replacements                32 # total number of replacements
dtlb.writebacks                   0 # total number of writebacks
dtlb.invalidations                0 # total number of invalidations
dtlb.miss_rate               0.0000 # miss rate (i.e., misses/ref)
dtlb.repl_rate               0.0000 # replacement rate (i.e., repls/ref)
dtlb.wb_rate                 0.0000 # writeback rate (i.e., wrbks/ref)
dtlb.inv_rate                0.0000 # invalidation rate (i.e., invs/ref)
rename_power           426806533.2451 # total power usage of rename unit
bpred_power            205284862.9340 # total power usage of bpred unit
window_power           3218893038.9249 # total power usage of instruction window
lsq_power              59268009.6894 # total power usage of load/store queue
regfile_power          4655961598.1116 # total power usage of arch. regfile
icache_power           186591396.7951 # total power usage of icache
dcache_power           396167497.8871 # total power usage of dcache
dcache2_power          190917534.3719 # total power usage of dcache2
alu_power              1165397867.9471 # total power usage of alu
falu_power             878672994.9456 # total power usage of falu
resultbus_power        2298861231.8305 # total power usage of resultbus
clock_power            4784781775.3927 # total power usage of clock
avg_rename_power             6.9369 # avg power usage of rename unit
avg_bpred_power              3.3365 # avg power usage of bpred unit
avg_window_power            52.3166 # avg power usage of instruction window
avg_lsq_power                0.9633 # avg power usage of lsq
avg_regfile_power           75.6732 # avg power usage of arch. regfile
avg_icache_power             3.0327 # avg power usage of icache
avg_dcache_power             6.4389 # avg power usage of dcache
avg_dcache2_power            3.1030 # avg power usage of dcache2
avg_alu_power               18.9412 # avg power usage of alu
avg_falu_power              14.2810 # avg power usage of falu
avg_resultbus_power         37.3633 # avg power usage of resultbus
avg_clock_power             77.7669 # avg power usage of clock
fetch_stage_power      391876259.7291 # total power usage of fetch stage
dispatch_stage_power   426806533.2451 # total power usage of dispatch stage
issue_stage_power      7329505180.6508 # total power usage of issue stage
avg_fetch_power              6.3692 # average power of fetch unit per cycle
avg_dispatch_power           6.9369 # average power of dispatch unit per cycle
avg_issue_power            119.1262 # average power of issue unit per cycle
total_power            17588931347.1292 # total power per cycle
avg_total_power_cycle      285.8724 # average total power per cycle
avg_total_power_cycle_nofp_nod2     268.4883 # average total power per cycle
avg_total_power_insn       175.8893 # average total power per insn
avg_total_power_insn_nofp_nod2     165.1934 # average total power per insn
rename_power_cc1       276135839.9232 # total power usage of rename unit_cc1
bpred_power_cc1              0.0000 # total power usage of bpred unit_cc1
window_power_cc1       2125124039.0866 # total power usage of instruction window_cc1
lsq_power_cc1          10223874.9056 # total power usage of lsq_cc1
regfile_power_cc1      2765523750.1687 # total power usage of arch. regfile_cc1
icache_power_cc1       120720623.6652 # total power usage of icache_cc1
dcache_power_cc1       118177104.2504 # total power usage of dcache_cc1
dcache2_power_cc1      13700970.5242 # total power usage of dcache2_cc1
alu_power_cc1          191982690.5351 # total power usage of alu_cc1
resultbus_power_cc1    1523814964.3380 # total power usage of resultbus_cc1
clock_power_cc1        2774421685.1326 # total power usage of clock_cc1
avg_rename_power_cc1         4.4880 # avg power usage of rename unit_cc1
avg_bpred_power_cc1          0.0000 # avg power usage of bpred unit_cc1
avg_window_power_cc1        34.5396 # avg power usage of instruction window_cc1
avg_lsq_power_cc1            0.1662 # avg power usage of lsq_cc1
avg_regfile_power_cc1       44.9480 # avg power usage of arch. regfile_cc1
avg_icache_power_cc1         1.9621 # avg power usage of icache_cc1
avg_dcache_power_cc1         1.9207 # avg power usage of dcache_cc1
avg_dcache2_power_cc1        0.2227 # avg power usage of dcache2_cc1
avg_alu_power_cc1            3.1203 # avg power usage of alu_cc1
avg_resultbus_power_cc1      24.7665 # avg power usage of resultbus_cc1
avg_clock_power_cc1         45.0926 # avg power usage of clock_cc1
fetch_stage_power_cc1  120720623.6652 # total power usage of fetch stage_cc1
dispatch_stage_power_cc1 276135839.9232 # total power usage of dispatch stage_cc1
issue_stage_power_cc1  3983023643.6398 # total power usage of issue stage_cc1
avg_fetch_power_cc1          1.9621 # average power of fetch unit per cycle_cc1
avg_dispatch_power_cc1       4.4880 # average power of dispatch unit per cycle_cc1
avg_issue_power_cc1         64.7360 # average power of issue unit per cycle_cc1
total_power_cycle_cc1  9919825542.5296 # total power per cycle_cc1
avg_total_power_cycle_cc1     161.2266 # average total power per cycle_cc1
avg_total_power_insn_cc1      99.1983 # average total power per insn_cc1
rename_power_cc2       21677729.2221 # total power usage of rename unit_cc2
bpred_power_cc2              0.0000 # total power usage of bpred unit_cc2
window_power_cc2       241367043.8128 # total power usage of instruction window_cc2
lsq_power_cc2          7497594.4156 # total power usage of lsq_cc2
regfile_power_cc2      853875708.3169 # total power usage of arch. regfile_cc2
icache_power_cc2       120720623.6652 # total power usage of icache_cc2
dcache_power_cc2       89271651.3857 # total power usage of dcache_cc2
dcache2_power_cc2      7422643.1491 # total power usage of dcache2_cc2
alu_power_cc2          116494684.3797 # total power usage of alu_cc2
resultbus_power_cc2    122364848.4293 # total power usage of resultbus_cc2
clock_power_cc2        610142987.9051 # total power usage of clock_cc2
avg_rename_power_cc2         0.3523 # avg power usage of rename unit_cc2
avg_bpred_power_cc2          0.0000 # avg power usage of bpred unit_cc2
avg_window_power_cc2         3.9229 # avg power usage of instruction window_cc2
avg_lsq_power_cc2            0.1219 # avg power usage of instruction lsq_cc2
avg_regfile_power_cc2       13.8780 # avg power usage of arch. regfile_cc2
avg_icache_power_cc2         1.9621 # avg power usage of icache_cc2
avg_dcache_power_cc2         1.4509 # avg power usage of dcache_cc2
avg_dcache2_power_cc2        0.1206 # avg power usage of dcache2_cc2
avg_alu_power_cc2            1.8934 # avg power usage of alu_cc2
avg_resultbus_power_cc2       1.9888 # avg power usage of resultbus_cc2
avg_clock_power_cc2          9.9166 # avg power usage of clock_cc2
fetch_stage_power_cc2  120720623.6652 # total power usage of fetch stage_cc2
dispatch_stage_power_cc2 21677729.2221 # total power usage of dispatch stage_cc2
issue_stage_power_cc2  584418465.5722 # total power usage of issue stage_cc2
avg_fetch_power_cc2          1.9621 # average power of fetch unit per cycle_cc2
avg_dispatch_power_cc2       0.3523 # average power of dispatch unit per cycle_cc2
avg_issue_power_cc2          9.4985 # average power of issue unit per cycle_cc2
total_power_cycle_cc2  2190835514.6815 # total power per cycle_cc2
avg_total_power_cycle_cc2      35.6076 # average total power per cycle_cc2
avg_total_power_insn_cc2      21.9084 # average total power per insn_cc2
rename_power_cc3       36744798.4954 # total power usage of rename unit_cc3
bpred_power_cc3        20528486.3069 # total power usage of bpred unit_cc3
window_power_cc3       330118354.2894 # total power usage of instruction window_cc3
lsq_power_cc3          12395761.9759 # total power usage of lsq_cc3
regfile_power_cc3      1015154729.7057 # total power usage of arch. regfile_cc3
icache_power_cc3       127307701.0334 # total power usage of icache_cc3
dcache_power_cc3       117216792.0953 # total power usage of dcache_cc3
dcache2_power_cc3      25144750.9993 # total power usage of dcache2_cc3
alu_power_cc3          213836201.7218 # total power usage of alu_cc3
resultbus_power_cc3    189710708.8893 # total power usage of resultbus_cc3
clock_power_cc3        788395662.4572 # total power usage of clock_cc3
avg_rename_power_cc3         0.5972 # avg power usage of rename unit_cc3
avg_bpred_power_cc3          0.3336 # avg power usage of bpred unit_cc3
avg_window_power_cc3         5.3654 # avg power usage of instruction window_cc3
avg_lsq_power_cc3            0.2015 # avg power usage of instruction lsq_cc3
avg_regfile_power_cc3       16.4993 # avg power usage of arch. regfile_cc3
avg_icache_power_cc3         2.0691 # avg power usage of icache_cc3
avg_dcache_power_cc3         1.9051 # avg power usage of dcache_cc3
avg_dcache2_power_cc3        0.4087 # avg power usage of dcache2_cc3
avg_alu_power_cc3            3.4755 # avg power usage of alu_cc3
avg_resultbus_power_cc3       3.0834 # avg power usage of resultbus_cc3
avg_clock_power_cc3         12.8138 # avg power usage of clock_cc3
fetch_stage_power_cc3  147836187.3403 # total power usage of fetch stage_cc3
dispatch_stage_power_cc3 36744798.4954 # total power usage of dispatch stage_cc3
issue_stage_power_cc3  888422569.9710 # total power usage of issue stage_cc3
avg_fetch_power_cc3          2.4028 # average power of fetch unit per cycle_cc3
avg_dispatch_power_cc3       0.5972 # average power of dispatch unit per cycle_cc3
avg_issue_power_cc3         14.4395 # average power of issue unit per cycle_cc3
total_power_cycle_cc3  2876553947.9695 # total power per cycle_cc3
avg_total_power_cycle_cc3      46.7525 # average total power per cycle_cc3
avg_total_power_insn_cc3      28.7655 # average total power per insn_cc3
total_rename_access       100000000 # total number accesses of rename unit
total_bpred_access                0 # total number accesses of bpred unit
total_window_access       370078689 # total number accesses of instruction window
total_lsq_access           27937462 # total number accesses of load/store queue
total_regfile_access      149979944 # total number accesses of arch. regfile
total_icache_access       355875707 # total number accesses of icache
total_dcache_access        27728860 # total number accesses of dcache
total_dcache2_access        4784208 # total number accesses of dcache2
total_alu_access           99992638 # total number accesses of alu
total_resultbus_access    111786643 # total number accesses of resultbus
avg_rename_access            1.6253 # avg number accesses of rename unit
avg_bpred_access             0.0000 # avg number accesses of bpred unit
avg_window_access            6.0149 # avg number accesses of instruction window
avg_lsq_access               0.4541 # avg number accesses of lsq
avg_regfile_access           2.4376 # avg number accesses of arch. regfile
avg_icache_access            5.7840 # avg number accesses of icache
avg_dcache_access            0.4507 # avg number accesses of dcache
avg_dcache2_access           0.0778 # avg number accesses of dcache2
avg_alu_access               1.6252 # avg number accesses of alu
avg_resultbus_access         1.8169 # avg number accesses of resultbus
max_rename_access                16 # max number accesses of rename unit
max_bpred_access                  0 # max number accesses of bpred unit
max_window_access                30 # max number accesses of instruction window
max_lsq_access                    5 # max number accesses of load/store queue
max_regfile_access               13 # max number accesses of arch. regfile
max_icache_access                32 # max number accesses of icache
max_dcache_access                 4 # max number accesses of dcache
max_dcache2_access                4 # max number accesses of dcache2
max_alu_access                    5 # max number accesses of alu
max_resultbus_access              8 # max number accesses of resultbus
max_cycle_power_cc1        229.7165 # maximum cycle power usage of cc1
max_cycle_power_cc2        102.7694 # maximum cycle power usage of cc2
max_cycle_power_cc3        108.9480 # maximum cycle power usage of cc3
sim_invalid_addrs                 0 # total non-speculative bogus addresses seen (debug var)
ld_text_base           0x0120000000 # program text (code) segment base
ld_text_size                 212992 # program text (code) size in bytes
ld_data_base           0x0140000000 # program initialized data segment base
ld_data_size                 402416 # program init'ed `.data' and uninit'ed `.bss' size in bytes
ld_stack_base          0x011ff9b000 # program stack segment base (highest address in stack)
ld_stack_size                 16384 # program initial stack size
ld_prog_entry          0x01200119b4 # program entry point (initial PC)
ld_environ_base        0x011ff96ef0 # program environment base address address
ld_target_big_endian              0 # target executable endian-ness, non-zero if big endian
mem.page_count                23131 # total number of pages allocated
mem.page_mem                185048k # total size of memory pages allocated
mem.ptab_misses             4279544 # total first level page table misses
mem.ptab_accesses        1368703256 # total page table accesses
mem.ptab_miss_rate           0.0031 # first level page table miss rate

