sim-outorder: SimpleScalar/Alpha Tool Set version 3.0 of August, 2003.
Copyright (c) 1994-2003 by Todd M. Austin, Ph.D. and SimpleScalar, LLC.
All Rights Reserved. This version of SimpleScalar is licensed for academic
non-commercial use.  No portion of this work may be used by any commercial
entity, or for any commercial purpose, without the prior written permission
of SimpleScalar, LLC (info@simplescalar.com).


Processor Parameters:
Issue Width: 32
Window Size: 16
Number of Virtual Registers: 32
Number of Physical Registers: 16
Datapath Width: 64
Total Power Consumption: 287.872
Branch Predictor Power Consumption: 3.33649  (1.17%)
 branch target buffer power (W): 2.49493
 local predict power (W): 0.574771
 global predict power (W): 0.0996078
 chooser power (W): 0.0702439
 RAS power (W): 0.0969383
Rename Logic Power Consumption: 6.93687  (2.43%)
 Instruction Decode Power (W): 0.127932
 RAT decode_power (W): 0.908115
 RAT wordline_power (W): 0.455623
 RAT bitline_power (W): 4.54351
 DCL Comparators (W): 0.901689
Instruction Window Power Consumption: 52.3166  (18.3%)
 tagdrive (W): 1.70315
 tagmatch (W): 0.455769
 Selection Logic (W): 0.107374
 decode_power (W): 0.426003
 wordline_power (W): 4.02565
 bitline_power (W): 45.5986
Load/Store Queue Power Consumption: 0.963281  (0.337%)
 tagdrive (W): 0.457232
 tagmatch (W): 0.100875
 decode_power (W): 0.00799577
 wordline_power (W): 0.0150119
 bitline_power (W): 0.382166
Arch. Register File Power Consumption: 75.6732  (26.5%)
 decode_power (W): 0.908115
 wordline_power (W): 4.02565
 bitline_power (W): 70.7394
Result Bus Power Consumption: 37.3633  (13.1%)
Total Clock Power: 77.7669  (27.2%)
Int ALU Power: 4.66013  (1.63%)
FP ALU Power: 14.281  (5%)
Instruction Cache Power Consumption: 2.76773  (0.968%)
 decode_power (W): 0.151353
 wordline_power (W): 0.180479
 bitline_power (W): 1.42251
 senseamp_power (W): 0.768
 tagarray_power (W): 0.245382
Itlb_power (W): 0.264936 (0.0927%)
Data Cache Power Consumption: 5.53546  (1.94%)
 decode_power (W): 0.302705
 wordline_power (W): 0.360958
 bitline_power (W): 2.84503
 senseamp_power (W): 1.536
 tagarray_power (W): 0.490764
Dtlb_power (W): 0.903441 (0.316%)
Level 2 Cache Power Consumption: 3.10298 (1.09%)
 decode_power (W): 0.19487
 wordline_power (W): 0.0430878
 bitline_power (W): 1.77274
 senseamp_power (W): 0.192
 tagarray_power (W): 0.900275
sim: loading EIO file: ../benchmarks/168.wupwise.spec_ref.eio.gz
sim: command line: ./sim-outorder -config ../configs/current.config ../benchmarks/168.wupwise.spec_ref.eio.gz 

sim: simulation started @ Mon Nov 23 20:58:46 2015, options follow:

sim-outorder: This simulator implements a very detailed out-of-order issue
superscalar processor with a two-level memory system and speculative
execution support.  This simulator is a performance simulator, tracking the
latency of all pipeline operations.

# -config                     # load configuration from a file
# -dumpconfig                 # dump configuration to a file
# -h                    false # print help message    
# -v                    false # verbose operation     
# -d                    false # enable debug message  
# -i                    false # start in Dlite debugger
-seed                       1 # random number generator seed (0 for timer seed)
# -q                    false # initialize and terminate immediately
# -chkpt               <null> # restore EIO trace execution from <fname>
# -redir:sim     ../results/13_12_ugh/168.wupwise.spec_ref.eio.gz.out # redirect simulator output to file (non-interactive only)
# -redir:prog       /dev/null # redirect simulated program output to file
-nice                       0 # simulator scheduling priority
-freq            600000000.0000 # frequency             
-max:inst           100000000 # maximum number of inst's to execute
-fastfwd                    0 # number of insts skipped before timing starts
# -ptrace              <null> # generate pipetrace, i.e., <fname|stdout|stderr> <range>
-fetch:ifqsize             32 # instruction fetch queue size (in insts)
-fetch:mplat                3 # extra branch mis-prediction latency
-fetch:speed                1 # speed of front-end of machine relative to execution core
-bpred                perfect # branch predictor type {nottaken|taken|perfect|bimod|2lev|comb}
-bpred:bimod     2048 # bimodal predictor config (<table size>)
-bpred:2lev      1 16384 4 0 # 2-level predictor config (<l1size> <l2size> <hist_size> <xor>)
-bpred:comb      1024 # combining predictor config (<meta_table_size>)
-bpred:ras                  8 # return address stack size (0 for no return stack)
-bpred:btb       512 4 # BTB config (<num_sets> <associativity>)
# -bpred:spec_update       <null> # speculative predictors update in {ID|WB} (default non-spec)
-decode:width              32 # instruction decode B/W (insts/cycle)
-issue:width               32 # instruction issue B/W (insts/cycle)
-issue:inorder          false # run pipeline with in-order issue
-issue:wrongpath         true # issue instructions down wrong execution paths
-commit:width               4 # instruction commit B/W (insts/cycle)
-ruu:size                  16 # register update unit (RUU) size
-lsq:size                   8 # load/store queue (LSQ) size
-cache:dl1       dl1:32:64:8:f # l1 data cache config, i.e., {<config>|none}
-cache:dl1lat               1 # l1 data cache hit latency (in cycles)
-cache:dl2       dl2:256:64:8:f # l2 data cache config, i.e., {<config>|none}
-cache:dl2lat               2 # l2 data cache hit latency (in cycles)
-cache:il1       il1:32:64:8:f # l1 inst cache config, i.e., {<config>|dl1|dl2|none}
-cache:il1lat               1 # l1 instruction cache hit latency (in cycles)
-cache:il2                dl2 # l2 instruction cache config, i.e., {<config>|dl2|none}
-cache:il2lat               2 # l2 instruction cache hit latency (in cycles)
-cache:flush            false # flush caches on system calls
-cache:icompress        false # convert 64-bit inst addresses to 32-bit inst equivalents
-mem:lat         103 1 # memory access latency (<first_chunk> <inter_chunk>)
-mem:width                  8 # memory access bus width (in bytes)
-tlb:itlb        itlb:16:4096:4:l # instruction TLB config, i.e., {<config>|none}
-tlb:dtlb        dtlb:32:4096:4:l # data TLB config, i.e., {<config>|none}
-tlb:lat                   30 # inst/data TLB miss latency (in cycles)
-res:ialu                   4 # total number of integer ALU's available
-res:imult                  1 # total number of integer multiplier/dividers available
-res:memport                2 # total number of memory system ports available (to CPU)
-res:fpalu                  4 # total number of floating point ALU's available
-res:fpmult                 1 # total number of floating point multiplier/dividers available
# -pcstat              <null> # profile stat(s) against text addr's (mult uses ok)
-bugcompat              false # operate in backward-compatible bugs mode (for testing only)

  Pipetrace range arguments are formatted as follows:

    {{@|#}<start>}:{{@|#|+}<end>}

  Both ends of the range are optional, if neither are specified, the entire
  execution is traced.  Ranges that start with a `@' designate an address
  range to be traced, those that start with an `#' designate a cycle count
  range.  All other range values represent an instruction count range.  The
  second argument, if specified with a `+', indicates a value relative
  to the first argument, e.g., 1000:+100 == 1000:1100.  Program symbols may
  be used in all contexts.

    Examples:   -ptrace FOO.trc #0:#1000
                -ptrace BAR.trc @2000:
                -ptrace BLAH.trc :1500
                -ptrace UXXE.trc :
                -ptrace FOOBAR.trc @main:+278

  Branch predictor configuration examples for 2-level predictor:
    Configurations:   N, M, W, X
      N   # entries in first level (# of shift register(s))
      W   width of shift register(s)
      M   # entries in 2nd level (# of counters, or other FSM)
      X   (yes-1/no-0) xor history and address for 2nd level index
    Sample predictors:
      GAg     : 1, W, 2^W, 0
      GAp     : 1, W, M (M > 2^W), 0
      PAg     : N, W, 2^W, 0
      PAp     : N, W, M (M == 2^(N+W)), 0
      gshare  : 1, W, 2^W, 1
  Predictor `comb' combines a bimodal and a 2-level predictor.

  The cache config parameter <config> has the following format:

    <name>:<nsets>:<bsize>:<assoc>:<repl>

    <name>   - name of the cache being defined
    <nsets>  - number of sets in the cache
    <bsize>  - block size of the cache
    <assoc>  - associativity of the cache
    <repl>   - block replacement strategy, 'l'-LRU, 'f'-FIFO, 'r'-random

    Examples:   -cache:dl1 dl1:4096:32:1:l
                -dtlb dtlb:128:4096:32:r

  Cache levels can be unified by pointing a level of the instruction cache
  hierarchy at the data cache hiearchy using the "dl1" and "dl2" cache
  configuration arguments.  Most sensible combinations are supported, e.g.,

    A unified l2 cache (il2 is pointed at dl2):
      -cache:il1 il1:128:64:1:l -cache:il2 dl2
      -cache:dl1 dl1:256:32:1:l -cache:dl2 ul2:1024:64:2:l

    Or, a fully unified cache hierarchy (il1 pointed at dl1):
      -cache:il1 dl1
      -cache:dl1 ul1:256:32:1:l -cache:dl2 ul2:1024:64:2:l



sim: ** starting performance simulation **

sim: ** simulation statistics **
sim_num_insn              100000003 # total number of instructions committed
sim_num_refs               28876485 # total number of loads and stores committed
sim_num_loads              22580049 # total number of loads committed
sim_num_stores         6296436.0000 # total number of stores committed
sim_num_branches            9891655 # total number of branches committed
sim_elapsed_time                122 # total simulation time in seconds
sim_inst_rate           819672.1557 # simulation speed (in insts/sec)
sim_total_insn            100000003 # total number of instructions executed
sim_total_refs             28876485 # total number of loads and stores executed
sim_total_loads            22580049 # total number of loads executed
sim_total_stores       6296436.0000 # total number of stores executed
sim_total_branches          9891655 # total number of branches executed
sim_cycle                  76126354 # total simulation time in cycles
sim_IPC                      1.3136 # instructions per cycle
sim_CPI                      0.7613 # cycles per instruction
sim_exec_BW                  1.3136 # total instructions (mis-spec + committed) per cycle
sim_IPB                     10.1095 # instruction per branch
IFQ_count                2435585997 # cumulative IFQ occupancy
IFQ_fcount                 76111614 # cumulative IFQ full count
ifq_occupancy               31.9940 # avg IFQ occupancy (insn's)
ifq_rate                     1.3136 # avg IFQ dispatch rate (insn/cycle)
ifq_latency                 24.3559 # avg IFQ occupant latency (cycle's)
ifq_full                     0.9998 # fraction of time (cycle's) IFQ was full
RUU_count                1139681752 # cumulative RUU occupancy
RUU_fcount                 55430495 # cumulative RUU full count
ruu_occupancy               14.9709 # avg RUU occupancy (insn's)
ruu_rate                     1.3136 # avg RUU dispatch rate (insn/cycle)
ruu_latency                 11.3968 # avg RUU occupant latency (cycle's)
ruu_full                     0.7281 # fraction of time (cycle's) RUU was full
LSQ_count                 402085438 # cumulative LSQ occupancy
LSQ_fcount                 29150236 # cumulative LSQ full count
lsq_occupancy                5.2818 # avg LSQ occupancy (insn's)
lsq_rate                     1.3136 # avg LSQ dispatch rate (insn/cycle)
lsq_latency                  4.0209 # avg LSQ occupant latency (cycle's)
lsq_full                     0.3829 # fraction of time (cycle's) LSQ was full
sim_slip                 1670643547 # total number of slip cycles
avg_sim_slip                16.7064 # the average slip between issue and retirement
il1.accesses              209435380 # total number of accesses
il1.hits                  209435246 # total number of hits
il1.misses                      134 # total number of misses
il1.replacements                  0 # total number of replacements
il1.writebacks                    0 # total number of writebacks
il1.invalidations                 0 # total number of invalidations
il1.miss_rate                0.0000 # miss rate (i.e., misses/ref)
il1.repl_rate                0.0000 # replacement rate (i.e., repls/ref)
il1.wb_rate                  0.0000 # writeback rate (i.e., wrbks/ref)
il1.inv_rate                 0.0000 # invalidation rate (i.e., invs/ref)
dl1.accesses               28840447 # total number of accesses
dl1.hits                   28346484 # total number of hits
dl1.misses                   493963 # total number of misses
dl1.replacements             493707 # total number of replacements
dl1.writebacks                67138 # total number of writebacks
dl1.invalidations                 0 # total number of invalidations
dl1.miss_rate                0.0171 # miss rate (i.e., misses/ref)
dl1.repl_rate                0.0171 # replacement rate (i.e., repls/ref)
dl1.wb_rate                  0.0023 # writeback rate (i.e., wrbks/ref)
dl1.inv_rate                 0.0000 # invalidation rate (i.e., invs/ref)
dl2.accesses                 561235 # total number of accesses
dl2.hits                     171781 # total number of hits
dl2.misses                   389454 # total number of misses
dl2.replacements             387406 # total number of replacements
dl2.writebacks                38948 # total number of writebacks
dl2.invalidations                 0 # total number of invalidations
dl2.miss_rate                0.6939 # miss rate (i.e., misses/ref)
dl2.repl_rate                0.6903 # replacement rate (i.e., repls/ref)
dl2.wb_rate                  0.0694 # writeback rate (i.e., wrbks/ref)
dl2.inv_rate                 0.0000 # invalidation rate (i.e., invs/ref)
itlb.accesses             209435380 # total number of accesses
itlb.hits                 209435373 # total number of hits
itlb.misses                       7 # total number of misses
itlb.replacements                 0 # total number of replacements
itlb.writebacks                   0 # total number of writebacks
itlb.invalidations                0 # total number of invalidations
itlb.miss_rate               0.0000 # miss rate (i.e., misses/ref)
itlb.repl_rate               0.0000 # replacement rate (i.e., repls/ref)
itlb.wb_rate                 0.0000 # writeback rate (i.e., wrbks/ref)
itlb.inv_rate                0.0000 # invalidation rate (i.e., invs/ref)
dtlb.accesses              28876477 # total number of accesses
dtlb.hits                  28864148 # total number of hits
dtlb.misses                   12329 # total number of misses
dtlb.replacements             12201 # total number of replacements
dtlb.writebacks                   0 # total number of writebacks
dtlb.invalidations                0 # total number of invalidations
dtlb.miss_rate               0.0004 # miss rate (i.e., misses/ref)
dtlb.repl_rate               0.0004 # replacement rate (i.e., repls/ref)
dtlb.wb_rate                 0.0000 # writeback rate (i.e., wrbks/ref)
dtlb.inv_rate                0.0000 # invalidation rate (i.e., invs/ref)
rename_power           528078877.2077 # total power usage of rename unit
bpred_power            253994705.8559 # total power usage of bpred unit
window_power           3982669638.0077 # total power usage of instruction window
lsq_power              73331079.9105 # total power usage of load/store queue
regfile_power          5760724780.0636 # total power usage of arch. regfile
icache_power           230865667.5330 # total power usage of icache
dcache_power           490169833.8649 # total power usage of dcache
dcache2_power          236218308.0245 # total power usage of dcache2
alu_power              1441922626.6170 # total power usage of alu
falu_power             1087163883.9770 # total power usage of falu
resultbus_power        2844333352.3145 # total power usage of resultbus
clock_power            5920111309.3988 # total power usage of clock
avg_rename_power             6.9369 # avg power usage of rename unit
avg_bpred_power              3.3365 # avg power usage of bpred unit
avg_window_power            52.3166 # avg power usage of instruction window
avg_lsq_power                0.9633 # avg power usage of lsq
avg_regfile_power           75.6732 # avg power usage of arch. regfile
avg_icache_power             3.0327 # avg power usage of icache
avg_dcache_power             6.4389 # avg power usage of dcache
avg_dcache2_power            3.1030 # avg power usage of dcache2
avg_alu_power               18.9412 # avg power usage of alu
avg_falu_power              14.2810 # avg power usage of falu
avg_resultbus_power         37.3633 # avg power usage of resultbus
avg_clock_power             77.7669 # avg power usage of clock
fetch_stage_power      484860373.3890 # total power usage of fetch stage
dispatch_stage_power   528078877.2077 # total power usage of dispatch stage
issue_stage_power      9068644838.7392 # total power usage of issue stage
avg_fetch_power              6.3692 # average power of fetch unit per cycle
avg_dispatch_power           6.9369 # average power of dispatch unit per cycle
avg_issue_power            119.1262 # average power of issue unit per cycle
total_power            21762420178.7982 # total power per cycle
avg_total_power_cycle      285.8724 # average total power per cycle
avg_total_power_cycle_nofp_nod2     268.4883 # average total power per cycle
avg_total_power_insn       217.6242 # average total power per insn
avg_total_power_insn_nofp_nod2     204.3904 # average total power per insn
rename_power_cc1       259482904.2594 # total power usage of rename unit_cc1
bpred_power_cc1              0.0000 # total power usage of bpred unit_cc1
window_power_cc1       2207589853.2884 # total power usage of instruction window_cc1
lsq_power_cc1          10224188.5118 # total power usage of lsq_cc1
regfile_power_cc1      2606115442.4851 # total power usage of arch. regfile_cc1
icache_power_cc1       113440440.3261 # total power usage of icache_cc1
dcache_power_cc1       120396608.5078 # total power usage of dcache_cc1
dcache2_power_cc1      1461207.2769 # total power usage of dcache2_cc1
alu_power_cc1          468897759.5726 # total power usage of alu_cc1
resultbus_power_cc1    1495655409.0216 # total power usage of resultbus_cc1
clock_power_cc1        2757176782.0046 # total power usage of clock_cc1
avg_rename_power_cc1         3.4086 # avg power usage of rename unit_cc1
avg_bpred_power_cc1          0.0000 # avg power usage of bpred unit_cc1
avg_window_power_cc1        28.9990 # avg power usage of instruction window_cc1
avg_lsq_power_cc1            0.1343 # avg power usage of lsq_cc1
avg_regfile_power_cc1       34.2341 # avg power usage of arch. regfile_cc1
avg_icache_power_cc1         1.4902 # avg power usage of icache_cc1
avg_dcache_power_cc1         1.5815 # avg power usage of dcache_cc1
avg_dcache2_power_cc1        0.0192 # avg power usage of dcache2_cc1
avg_alu_power_cc1            6.1595 # avg power usage of alu_cc1
avg_resultbus_power_cc1      19.6470 # avg power usage of resultbus_cc1
avg_clock_power_cc1         36.2184 # avg power usage of clock_cc1
fetch_stage_power_cc1  113440440.3261 # total power usage of fetch stage_cc1
dispatch_stage_power_cc1 259482904.2594 # total power usage of dispatch stage_cc1
issue_stage_power_cc1  4304225026.1790 # total power usage of issue stage_cc1
avg_fetch_power_cc1          1.4902 # average power of fetch unit per cycle_cc1
avg_dispatch_power_cc1       3.4086 # average power of dispatch unit per cycle_cc1
avg_issue_power_cc1         56.5405 # average power of issue unit per cycle_cc1
total_power_cycle_cc1  10040440595.2542 # total power per cycle_cc1
avg_total_power_cycle_cc1     131.8918 # average total power per cycle_cc1
avg_total_power_insn_cc1     100.4044 # average total power per insn_cc1
rename_power_cc2       21677729.8734 # total power usage of rename unit_cc2
bpred_power_cc2              0.0000 # total power usage of bpred unit_cc2
window_power_cc2       249080266.1229 # total power usage of instruction window_cc2
lsq_power_cc2          7441198.1160 # total power usage of lsq_cc2
regfile_power_cc2      984564229.1202 # total power usage of arch. regfile_cc2
icache_power_cc2       113440440.3261 # total power usage of icache_cc2
dcache_power_cc2       92850349.0728 # total power usage of dcache_cc2
dcache2_power_cc2       870749.5844 # total power usage of dcache2_cc2
alu_power_cc2          189197438.5374 # total power usage of alu_cc2
resultbus_power_cc2    123351922.0396 # total power usage of resultbus_cc2
clock_power_cc2        674561055.1291 # total power usage of clock_cc2
avg_rename_power_cc2         0.2848 # avg power usage of rename unit_cc2
avg_bpred_power_cc2          0.0000 # avg power usage of bpred unit_cc2
avg_window_power_cc2         3.2719 # avg power usage of instruction window_cc2
avg_lsq_power_cc2            0.0977 # avg power usage of instruction lsq_cc2
avg_regfile_power_cc2       12.9333 # avg power usage of arch. regfile_cc2
avg_icache_power_cc2         1.4902 # avg power usage of icache_cc2
avg_dcache_power_cc2         1.2197 # avg power usage of dcache_cc2
avg_dcache2_power_cc2        0.0114 # avg power usage of dcache2_cc2
avg_alu_power_cc2            2.4853 # avg power usage of alu_cc2
avg_resultbus_power_cc2       1.6204 # avg power usage of resultbus_cc2
avg_clock_power_cc2          8.8611 # avg power usage of clock_cc2
fetch_stage_power_cc2  113440440.3261 # total power usage of fetch stage_cc2
dispatch_stage_power_cc2 21677729.8734 # total power usage of dispatch stage_cc2
issue_stage_power_cc2  662791923.4732 # total power usage of issue stage_cc2
avg_fetch_power_cc2          1.4902 # average power of fetch unit per cycle_cc2
avg_dispatch_power_cc2       0.2848 # average power of dispatch unit per cycle_cc2
avg_issue_power_cc2          8.7065 # average power of issue unit per cycle_cc2
total_power_cycle_cc2  2457035377.9220 # total power per cycle_cc2
avg_total_power_cycle_cc2      32.2758 # average total power per cycle_cc2
avg_total_power_insn_cc2      24.5704 # average total power per insn_cc2
rename_power_cc3       48537327.0777 # total power usage of rename unit_cc3
bpred_power_cc3        25399470.6208 # total power usage of bpred unit_cc3
window_power_cc3       405046811.3500 # total power usage of instruction window_cc3
lsq_power_cc3          13732410.3740 # total power usage of lsq_cc3
regfile_power_cc3      1273003821.1161 # total power usage of arch. regfile_cc3
icache_power_cc3       125182963.1461 # total power usage of icache_cc3
dcache_power_cc3       130234667.0328 # total power usage of dcache_cc3
dcache2_power_cc3      24347527.9944 # total power usage of dcache2_cc3
alu_power_cc3          286499924.7934 # total power usage of alu_cc3
resultbus_power_cc3    248248680.3656 # total power usage of resultbus_cc3
clock_power_cc3        968848527.4131 # total power usage of clock_cc3
avg_rename_power_cc3         0.6376 # avg power usage of rename unit_cc3
avg_bpred_power_cc3          0.3336 # avg power usage of bpred unit_cc3
avg_window_power_cc3         5.3207 # avg power usage of instruction window_cc3
avg_lsq_power_cc3            0.1804 # avg power usage of instruction lsq_cc3
avg_regfile_power_cc3       16.7222 # avg power usage of arch. regfile_cc3
avg_icache_power_cc3         1.6444 # avg power usage of icache_cc3
avg_dcache_power_cc3         1.7108 # avg power usage of dcache_cc3
avg_dcache2_power_cc3        0.3198 # avg power usage of dcache2_cc3
avg_alu_power_cc3            3.7635 # avg power usage of alu_cc3
avg_resultbus_power_cc3       3.2610 # avg power usage of resultbus_cc3
avg_clock_power_cc3         12.7268 # avg power usage of clock_cc3
fetch_stage_power_cc3  150582433.7669 # total power usage of fetch stage_cc3
dispatch_stage_power_cc3 48537327.0777 # total power usage of dispatch stage_cc3
issue_stage_power_cc3  1108110021.9101 # total power usage of issue stage_cc3
avg_fetch_power_cc3          1.9781 # average power of fetch unit per cycle_cc3
avg_dispatch_power_cc3       0.6376 # average power of dispatch unit per cycle_cc3
avg_issue_power_cc3         14.5562 # average power of issue unit per cycle_cc3
total_power_cycle_cc3  3549082131.2840 # total power per cycle_cc3
avg_total_power_cycle_cc3      46.6209 # average total power per cycle_cc3
avg_total_power_insn_cc3      35.4908 # average total power per insn_cc3
total_rename_access       100000003 # total number accesses of rename unit
total_bpred_access                0 # total number accesses of bpred unit
total_window_access       388736015 # total number accesses of instruction window
total_lsq_access           28912509 # total number accesses of load/store queue
total_regfile_access      173504776 # total number accesses of arch. regfile
total_icache_access       209435380 # total number accesses of icache
total_dcache_access        28840447 # total number accesses of dcache
total_dcache2_access         561235 # total number accesses of dcache2
total_alu_access           99715136 # total number accesses of alu
total_resultbus_access    112688386 # total number accesses of resultbus
avg_rename_access            1.3136 # avg number accesses of rename unit
avg_bpred_access             0.0000 # avg number accesses of bpred unit
avg_window_access            5.1065 # avg number accesses of instruction window
avg_lsq_access               0.3798 # avg number accesses of lsq
avg_regfile_access           2.2792 # avg number accesses of arch. regfile
avg_icache_access            2.7512 # avg number accesses of icache
avg_dcache_access            0.3788 # avg number accesses of dcache
avg_dcache2_access           0.0074 # avg number accesses of dcache2
avg_alu_access               1.3099 # avg number accesses of alu
avg_resultbus_access         1.4803 # avg number accesses of resultbus
max_rename_access                16 # max number accesses of rename unit
max_bpred_access                  0 # max number accesses of bpred unit
max_window_access                32 # max number accesses of instruction window
max_lsq_access                    6 # max number accesses of load/store queue
max_regfile_access               25 # max number accesses of arch. regfile
max_icache_access                32 # max number accesses of icache
max_dcache_access                 4 # max number accesses of dcache
max_dcache2_access                4 # max number accesses of dcache2
max_alu_access                    9 # max number accesses of alu
max_resultbus_access              9 # max number accesses of resultbus
max_cycle_power_cc1        250.3569 # maximum cycle power usage of cc1
max_cycle_power_cc2        162.6522 # maximum cycle power usage of cc2
max_cycle_power_cc3        176.5209 # maximum cycle power usage of cc3
sim_invalid_addrs                 0 # total non-speculative bogus addresses seen (debug var)
ld_text_base           0x0120000000 # program text (code) segment base
ld_text_size                 819200 # program text (code) size in bytes
ld_data_base           0x0140000000 # program initialized data segment base
ld_data_size              184522544 # program init'ed `.data' and uninit'ed `.bss' size in bytes
ld_stack_base          0x011ff9b000 # program stack segment base (highest address in stack)
ld_stack_size                 16384 # program initial stack size
ld_prog_entry          0x012001ca90 # program entry point (initial PC)
ld_environ_base        0x011ff96b90 # program environment base address address
ld_target_big_endian              0 # target executable endian-ness, non-zero if big endian
mem.page_count                22628 # total number of pages allocated
mem.page_mem                181024k # total size of memory pages allocated
mem.ptab_misses              117588 # total first level page table misses
mem.ptab_accesses        1213073648 # total page table accesses
mem.ptab_miss_rate           0.0001 # first level page table miss rate

