sim-outorder: SimpleScalar/Alpha Tool Set version 3.0 of August, 2003.
Copyright (c) 1994-2003 by Todd M. Austin, Ph.D. and SimpleScalar, LLC.
All Rights Reserved. This version of SimpleScalar is licensed for academic
non-commercial use.  No portion of this work may be used by any commercial
entity, or for any commercial purpose, without the prior written permission
of SimpleScalar, LLC (info@simplescalar.com).


Processor Parameters:
Issue Width: 32
Window Size: 16
Number of Virtual Registers: 32
Number of Physical Registers: 16
Datapath Width: 64
Total Power Consumption: 287.872
Branch Predictor Power Consumption: 3.33649  (1.17%)
 branch target buffer power (W): 2.49493
 local predict power (W): 0.574771
 global predict power (W): 0.0996078
 chooser power (W): 0.0702439
 RAS power (W): 0.0969383
Rename Logic Power Consumption: 6.93687  (2.43%)
 Instruction Decode Power (W): 0.127932
 RAT decode_power (W): 0.908115
 RAT wordline_power (W): 0.455623
 RAT bitline_power (W): 4.54351
 DCL Comparators (W): 0.901689
Instruction Window Power Consumption: 52.3166  (18.3%)
 tagdrive (W): 1.70315
 tagmatch (W): 0.455769
 Selection Logic (W): 0.107374
 decode_power (W): 0.426003
 wordline_power (W): 4.02565
 bitline_power (W): 45.5986
Load/Store Queue Power Consumption: 0.963281  (0.337%)
 tagdrive (W): 0.457232
 tagmatch (W): 0.100875
 decode_power (W): 0.00799577
 wordline_power (W): 0.0150119
 bitline_power (W): 0.382166
Arch. Register File Power Consumption: 75.6732  (26.5%)
 decode_power (W): 0.908115
 wordline_power (W): 4.02565
 bitline_power (W): 70.7394
Result Bus Power Consumption: 37.3633  (13.1%)
Total Clock Power: 77.7669  (27.2%)
Int ALU Power: 4.66013  (1.63%)
FP ALU Power: 14.281  (5%)
Instruction Cache Power Consumption: 2.76773  (0.968%)
 decode_power (W): 0.151353
 wordline_power (W): 0.180479
 bitline_power (W): 1.42251
 senseamp_power (W): 0.768
 tagarray_power (W): 0.245382
Itlb_power (W): 0.264936 (0.0927%)
Data Cache Power Consumption: 5.53546  (1.94%)
 decode_power (W): 0.302705
 wordline_power (W): 0.360958
 bitline_power (W): 2.84503
 senseamp_power (W): 1.536
 tagarray_power (W): 0.490764
Dtlb_power (W): 0.903441 (0.316%)
Level 2 Cache Power Consumption: 3.10298 (1.09%)
 decode_power (W): 0.19487
 wordline_power (W): 0.0430878
 bitline_power (W): 1.77274
 senseamp_power (W): 0.192
 tagarray_power (W): 0.900275
sim: loading EIO file: ../benchmarks/176.gcc.00-scilab-ref.eio.gz
sim: command line: ./sim-outorder -config ../configs/current.config ../benchmarks/176.gcc.00-scilab-ref.eio.gz 

sim: simulation started @ Mon Nov 23 20:58:35 2015, options follow:

sim-outorder: This simulator implements a very detailed out-of-order issue
superscalar processor with a two-level memory system and speculative
execution support.  This simulator is a performance simulator, tracking the
latency of all pipeline operations.

# -config                     # load configuration from a file
# -dumpconfig                 # dump configuration to a file
# -h                    false # print help message    
# -v                    false # verbose operation     
# -d                    false # enable debug message  
# -i                    false # start in Dlite debugger
-seed                       1 # random number generator seed (0 for timer seed)
# -q                    false # initialize and terminate immediately
# -chkpt               <null> # restore EIO trace execution from <fname>
# -redir:sim     ../results/13_12_ugh/176.gcc.00-scilab-ref.eio.gz.out # redirect simulator output to file (non-interactive only)
# -redir:prog       /dev/null # redirect simulated program output to file
-nice                       0 # simulator scheduling priority
-freq            600000000.0000 # frequency             
-max:inst           100000000 # maximum number of inst's to execute
-fastfwd                    0 # number of insts skipped before timing starts
# -ptrace              <null> # generate pipetrace, i.e., <fname|stdout|stderr> <range>
-fetch:ifqsize             32 # instruction fetch queue size (in insts)
-fetch:mplat                3 # extra branch mis-prediction latency
-fetch:speed                1 # speed of front-end of machine relative to execution core
-bpred                perfect # branch predictor type {nottaken|taken|perfect|bimod|2lev|comb}
-bpred:bimod     2048 # bimodal predictor config (<table size>)
-bpred:2lev      1 16384 4 0 # 2-level predictor config (<l1size> <l2size> <hist_size> <xor>)
-bpred:comb      1024 # combining predictor config (<meta_table_size>)
-bpred:ras                  8 # return address stack size (0 for no return stack)
-bpred:btb       512 4 # BTB config (<num_sets> <associativity>)
# -bpred:spec_update       <null> # speculative predictors update in {ID|WB} (default non-spec)
-decode:width              32 # instruction decode B/W (insts/cycle)
-issue:width               32 # instruction issue B/W (insts/cycle)
-issue:inorder          false # run pipeline with in-order issue
-issue:wrongpath         true # issue instructions down wrong execution paths
-commit:width               4 # instruction commit B/W (insts/cycle)
-ruu:size                  16 # register update unit (RUU) size
-lsq:size                   8 # load/store queue (LSQ) size
-cache:dl1       dl1:32:64:8:f # l1 data cache config, i.e., {<config>|none}
-cache:dl1lat               1 # l1 data cache hit latency (in cycles)
-cache:dl2       dl2:256:64:8:f # l2 data cache config, i.e., {<config>|none}
-cache:dl2lat               2 # l2 data cache hit latency (in cycles)
-cache:il1       il1:32:64:8:f # l1 inst cache config, i.e., {<config>|dl1|dl2|none}
-cache:il1lat               1 # l1 instruction cache hit latency (in cycles)
-cache:il2                dl2 # l2 instruction cache config, i.e., {<config>|dl2|none}
-cache:il2lat               2 # l2 instruction cache hit latency (in cycles)
-cache:flush            false # flush caches on system calls
-cache:icompress        false # convert 64-bit inst addresses to 32-bit inst equivalents
-mem:lat         103 1 # memory access latency (<first_chunk> <inter_chunk>)
-mem:width                  8 # memory access bus width (in bytes)
-tlb:itlb        itlb:16:4096:4:l # instruction TLB config, i.e., {<config>|none}
-tlb:dtlb        dtlb:32:4096:4:l # data TLB config, i.e., {<config>|none}
-tlb:lat                   30 # inst/data TLB miss latency (in cycles)
-res:ialu                   4 # total number of integer ALU's available
-res:imult                  1 # total number of integer multiplier/dividers available
-res:memport                2 # total number of memory system ports available (to CPU)
-res:fpalu                  4 # total number of floating point ALU's available
-res:fpmult                 1 # total number of floating point multiplier/dividers available
# -pcstat              <null> # profile stat(s) against text addr's (mult uses ok)
-bugcompat              false # operate in backward-compatible bugs mode (for testing only)

  Pipetrace range arguments are formatted as follows:

    {{@|#}<start>}:{{@|#|+}<end>}

  Both ends of the range are optional, if neither are specified, the entire
  execution is traced.  Ranges that start with a `@' designate an address
  range to be traced, those that start with an `#' designate a cycle count
  range.  All other range values represent an instruction count range.  The
  second argument, if specified with a `+', indicates a value relative
  to the first argument, e.g., 1000:+100 == 1000:1100.  Program symbols may
  be used in all contexts.

    Examples:   -ptrace FOO.trc #0:#1000
                -ptrace BAR.trc @2000:
                -ptrace BLAH.trc :1500
                -ptrace UXXE.trc :
                -ptrace FOOBAR.trc @main:+278

  Branch predictor configuration examples for 2-level predictor:
    Configurations:   N, M, W, X
      N   # entries in first level (# of shift register(s))
      W   width of shift register(s)
      M   # entries in 2nd level (# of counters, or other FSM)
      X   (yes-1/no-0) xor history and address for 2nd level index
    Sample predictors:
      GAg     : 1, W, 2^W, 0
      GAp     : 1, W, M (M > 2^W), 0
      PAg     : N, W, 2^W, 0
      PAp     : N, W, M (M == 2^(N+W)), 0
      gshare  : 1, W, 2^W, 1
  Predictor `comb' combines a bimodal and a 2-level predictor.

  The cache config parameter <config> has the following format:

    <name>:<nsets>:<bsize>:<assoc>:<repl>

    <name>   - name of the cache being defined
    <nsets>  - number of sets in the cache
    <bsize>  - block size of the cache
    <assoc>  - associativity of the cache
    <repl>   - block replacement strategy, 'l'-LRU, 'f'-FIFO, 'r'-random

    Examples:   -cache:dl1 dl1:4096:32:1:l
                -dtlb dtlb:128:4096:32:r

  Cache levels can be unified by pointing a level of the instruction cache
  hierarchy at the data cache hiearchy using the "dl1" and "dl2" cache
  configuration arguments.  Most sensible combinations are supported, e.g.,

    A unified l2 cache (il2 is pointed at dl2):
      -cache:il1 il1:128:64:1:l -cache:il2 dl2
      -cache:dl1 dl1:256:32:1:l -cache:dl2 ul2:1024:64:2:l

    Or, a fully unified cache hierarchy (il1 pointed at dl1):
      -cache:il1 dl1
      -cache:dl1 ul1:256:32:1:l -cache:dl2 ul2:1024:64:2:l



sim: ** starting performance simulation **

sim: ** simulation statistics **
sim_num_insn              100000002 # total number of instructions committed
sim_num_refs               40836497 # total number of loads and stores committed
sim_num_loads              31266712 # total number of loads committed
sim_num_stores         9569785.0000 # total number of stores committed
sim_num_branches           14837495 # total number of branches committed
sim_elapsed_time                112 # total simulation time in seconds
sim_inst_rate           892857.1607 # simulation speed (in insts/sec)
sim_total_insn            100000002 # total number of instructions executed
sim_total_refs             40836497 # total number of loads and stores executed
sim_total_loads            31266712 # total number of loads executed
sim_total_stores       9569785.0000 # total number of stores executed
sim_total_branches         14837495 # total number of branches executed
sim_cycle                  62596924 # total simulation time in cycles
sim_IPC                      1.5975 # instructions per cycle
sim_CPI                      0.6260 # cycles per instruction
sim_exec_BW                  1.5975 # total instructions (mis-spec + committed) per cycle
sim_IPB                      6.7397 # instruction per branch
IFQ_count                1457943574 # cumulative IFQ occupancy
IFQ_fcount                 43768990 # cumulative IFQ full count
ifq_occupancy               23.2910 # avg IFQ occupancy (insn's)
ifq_rate                     1.5975 # avg IFQ dispatch rate (insn/cycle)
ifq_latency                 14.5794 # avg IFQ occupant latency (cycle's)
ifq_full                     0.6992 # fraction of time (cycle's) IFQ was full
RUU_count                 676722412 # cumulative RUU occupancy
RUU_fcount                 23326240 # cumulative RUU full count
ruu_occupancy               10.8108 # avg RUU occupancy (insn's)
ruu_rate                     1.5975 # avg RUU dispatch rate (insn/cycle)
ruu_latency                  6.7672 # avg RUU occupant latency (cycle's)
ruu_full                     0.3726 # fraction of time (cycle's) RUU was full
LSQ_count                 286497611 # cumulative LSQ occupancy
LSQ_fcount                 17473318 # cumulative LSQ full count
lsq_occupancy                4.5769 # avg LSQ occupancy (insn's)
lsq_rate                     1.5975 # avg LSQ dispatch rate (insn/cycle)
lsq_latency                  2.8650 # avg LSQ occupant latency (cycle's)
lsq_full                     0.2791 # fraction of time (cycle's) LSQ was full
sim_slip                 1104056463 # total number of slip cycles
avg_sim_slip                11.0406 # the average slip between issue and retirement
il1.accesses              378136935 # total number of accesses
il1.hits                  376041178 # total number of hits
il1.misses                  2095757 # total number of misses
il1.replacements            2095501 # total number of replacements
il1.writebacks                    0 # total number of writebacks
il1.invalidations                 0 # total number of invalidations
il1.miss_rate                0.0055 # miss rate (i.e., misses/ref)
il1.repl_rate                0.0055 # replacement rate (i.e., repls/ref)
il1.wb_rate                  0.0000 # writeback rate (i.e., wrbks/ref)
il1.inv_rate                 0.0000 # invalidation rate (i.e., invs/ref)
dl1.accesses               40652548 # total number of accesses
dl1.hits                   40074397 # total number of hits
dl1.misses                   578151 # total number of misses
dl1.replacements             577895 # total number of replacements
dl1.writebacks               443298 # total number of writebacks
dl1.invalidations                 0 # total number of invalidations
dl1.miss_rate                0.0142 # miss rate (i.e., misses/ref)
dl1.repl_rate                0.0142 # replacement rate (i.e., repls/ref)
dl1.wb_rate                  0.0109 # writeback rate (i.e., wrbks/ref)
dl1.inv_rate                 0.0000 # invalidation rate (i.e., invs/ref)
dl2.accesses                3117206 # total number of accesses
dl2.hits                    2786783 # total number of hits
dl2.misses                   330423 # total number of misses
dl2.replacements             328375 # total number of replacements
dl2.writebacks               129255 # total number of writebacks
dl2.invalidations                 0 # total number of invalidations
dl2.miss_rate                0.1060 # miss rate (i.e., misses/ref)
dl2.repl_rate                0.1053 # replacement rate (i.e., repls/ref)
dl2.wb_rate                  0.0415 # writeback rate (i.e., wrbks/ref)
dl2.inv_rate                 0.0000 # invalidation rate (i.e., invs/ref)
itlb.accesses             378136935 # total number of accesses
itlb.hits                 378127719 # total number of hits
itlb.misses                    9216 # total number of misses
itlb.replacements              9152 # total number of replacements
itlb.writebacks                   0 # total number of writebacks
itlb.invalidations                0 # total number of invalidations
itlb.miss_rate               0.0000 # miss rate (i.e., misses/ref)
itlb.repl_rate               0.0000 # replacement rate (i.e., repls/ref)
itlb.wb_rate                 0.0000 # writeback rate (i.e., wrbks/ref)
itlb.inv_rate                0.0000 # invalidation rate (i.e., invs/ref)
dtlb.accesses              40836492 # total number of accesses
dtlb.hits                  40825123 # total number of hits
dtlb.misses                   11369 # total number of misses
dtlb.replacements             11241 # total number of replacements
dtlb.writebacks                   0 # total number of writebacks
dtlb.invalidations                0 # total number of invalidations
dtlb.miss_rate               0.0003 # miss rate (i.e., misses/ref)
dtlb.repl_rate               0.0003 # replacement rate (i.e., repls/ref)
dtlb.wb_rate                 0.0000 # writeback rate (i.e., wrbks/ref)
dtlb.inv_rate                0.0000 # invalidation rate (i.e., invs/ref)
rename_power           434226934.4433 # total power usage of rename unit
bpred_power            208853918.0446 # total power usage of bpred unit
window_power           3274856281.8916 # total power usage of instruction window
lsq_power              60298435.3618 # total power usage of load/store queue
regfile_power          4736909522.4738 # total power usage of arch. regfile
icache_power           189835449.7989 # total power usage of icache
dcache_power           403055212.9258 # total power usage of dcache
dcache2_power          194236801.0338 # total power usage of dcache2
alu_power              1185659319.1022 # total power usage of alu
falu_power             893949485.8635 # total power usage of falu
resultbus_power        2338828925.0629 # total power usage of resultbus
clock_power            4867969349.6587 # total power usage of clock
avg_rename_power             6.9369 # avg power usage of rename unit
avg_bpred_power              3.3365 # avg power usage of bpred unit
avg_window_power            52.3166 # avg power usage of instruction window
avg_lsq_power                0.9633 # avg power usage of lsq
avg_regfile_power           75.6732 # avg power usage of arch. regfile
avg_icache_power             3.0327 # avg power usage of icache
avg_dcache_power             6.4389 # avg power usage of dcache
avg_dcache2_power            3.1030 # avg power usage of dcache2
avg_alu_power               18.9412 # avg power usage of alu
avg_falu_power              14.2810 # avg power usage of falu
avg_resultbus_power         37.3633 # avg power usage of resultbus
avg_clock_power             77.7669 # avg power usage of clock
fetch_stage_power      398689367.8435 # total power usage of fetch stage
dispatch_stage_power   434226934.4433 # total power usage of dispatch stage
issue_stage_power      7456934975.3781 # total power usage of issue stage
avg_fetch_power              6.3692 # average power of fetch unit per cycle
avg_dispatch_power           6.9369 # average power of dispatch unit per cycle
avg_issue_power            119.1262 # average power of issue unit per cycle
total_power            17894730149.7973 # total power per cycle
avg_total_power_cycle      285.8724 # average total power per cycle
avg_total_power_cycle_nofp_nod2     268.4883 # average total power per cycle
avg_total_power_insn       178.9473 # average total power per insn
avg_total_power_insn_nofp_nod2     168.0654 # average total power per insn
rename_power_cc1       231248227.3212 # total power usage of rename unit_cc1
bpred_power_cc1              0.0000 # total power usage of bpred unit_cc1
window_power_cc1       1950650930.7846 # total power usage of instruction window_cc1
lsq_power_cc1          14693305.8227 # total power usage of lsq_cc1
regfile_power_cc1      2428055783.8641 # total power usage of arch. regfile_cc1
icache_power_cc1       100811625.9960 # total power usage of icache_cc1
dcache_power_cc1       171449810.2449 # total power usage of dcache_cc1
dcache2_power_cc1      8259646.3088 # total power usage of dcache2_cc1
alu_power_cc1          169740474.3649 # total power usage of alu_cc1
resultbus_power_cc1    1360947515.0620 # total power usage of resultbus_cc1
clock_power_cc1        2830940643.2896 # total power usage of clock_cc1
avg_rename_power_cc1         3.6942 # avg power usage of rename unit_cc1
avg_bpred_power_cc1          0.0000 # avg power usage of bpred unit_cc1
avg_window_power_cc1        31.1621 # avg power usage of instruction window_cc1
avg_lsq_power_cc1            0.2347 # avg power usage of lsq_cc1
avg_regfile_power_cc1       38.7887 # avg power usage of arch. regfile_cc1
avg_icache_power_cc1         1.6105 # avg power usage of icache_cc1
avg_dcache_power_cc1         2.7389 # avg power usage of dcache_cc1
avg_dcache2_power_cc1        0.1319 # avg power usage of dcache2_cc1
avg_alu_power_cc1            2.7116 # avg power usage of alu_cc1
avg_resultbus_power_cc1      21.7414 # avg power usage of resultbus_cc1
avg_clock_power_cc1         45.2249 # avg power usage of clock_cc1
fetch_stage_power_cc1  100811625.9960 # total power usage of fetch stage_cc1
dispatch_stage_power_cc1 231248227.3212 # total power usage of dispatch stage_cc1
issue_stage_power_cc1  3675741682.5879 # total power usage of issue stage_cc1
avg_fetch_power_cc1          1.6105 # average power of fetch unit per cycle_cc1
avg_dispatch_power_cc1       3.6942 # average power of dispatch unit per cycle_cc1
avg_issue_power_cc1         58.7208 # average power of issue unit per cycle_cc1
total_power_cycle_cc1  9266797963.0587 # total power per cycle_cc1
avg_total_power_cycle_cc1     148.0392 # average total power per cycle_cc1
avg_total_power_insn_cc1      92.6680 # average total power per insn_cc1
rename_power_cc2       21677729.6567 # total power usage of rename unit_cc2
bpred_power_cc2              0.0000 # total power usage of bpred unit_cc2
window_power_cc2       257927732.7393 # total power usage of instruction window_cc2
lsq_power_cc2          10547520.0864 # total power usage of lsq_cc2
regfile_power_cc2      841340542.6116 # total power usage of arch. regfile_cc2
icache_power_cc2       100811625.9960 # total power usage of icache_cc2
dcache_power_cc2       130878806.1602 # total power usage of dcache_cc2
dcache2_power_cc2      4836308.9059 # total power usage of dcache2_cc2
alu_power_cc2          116148843.3236 # total power usage of alu_cc2
resultbus_power_cc2    127446734.7060 # total power usage of resultbus_cc2
clock_power_cc2        727570521.1100 # total power usage of clock_cc2
avg_rename_power_cc2         0.3463 # avg power usage of rename unit_cc2
avg_bpred_power_cc2          0.0000 # avg power usage of bpred unit_cc2
avg_window_power_cc2         4.1205 # avg power usage of instruction window_cc2
avg_lsq_power_cc2            0.1685 # avg power usage of instruction lsq_cc2
avg_regfile_power_cc2       13.4406 # avg power usage of arch. regfile_cc2
avg_icache_power_cc2         1.6105 # avg power usage of icache_cc2
avg_dcache_power_cc2         2.0908 # avg power usage of dcache_cc2
avg_dcache2_power_cc2        0.0773 # avg power usage of dcache2_cc2
avg_alu_power_cc2            1.8555 # avg power usage of alu_cc2
avg_resultbus_power_cc2       2.0360 # avg power usage of resultbus_cc2
avg_clock_power_cc2         11.6231 # avg power usage of clock_cc2
fetch_stage_power_cc2  100811625.9960 # total power usage of fetch stage_cc2
dispatch_stage_power_cc2 21677729.6567 # total power usage of dispatch stage_cc2
issue_stage_power_cc2  647785945.9214 # total power usage of issue stage_cc2
avg_fetch_power_cc2          1.6105 # average power of fetch unit per cycle_cc2
avg_dispatch_power_cc2       0.3463 # average power of dispatch unit per cycle_cc2
avg_issue_power_cc2         10.3485 # average power of issue unit per cycle_cc2
total_power_cycle_cc2  2339186365.2955 # total power per cycle_cc2
avg_total_power_cycle_cc2      37.3690 # average total power per cycle_cc2
avg_total_power_insn_cc2      23.3919 # average total power per insn_cc2
rename_power_cc3       41975600.3063 # total power usage of rename unit_cc3
bpred_power_cc3        20885391.8195 # total power usage of bpred unit_cc3
window_power_cc3       369995715.4029 # total power usage of instruction window_cc3
lsq_power_cc3          15107286.0395 # total power usage of lsq_cc3
regfile_power_cc3      1042728440.8599 # total power usage of arch. regfile_cc3
icache_power_cc3       109714008.4461 # total power usage of icache_cc3
dcache_power_cc3       154829714.9778 # total power usage of dcache_cc3
dcache2_power_cc3      23436571.5998 # total power usage of dcache2_cc3
alu_power_cc3          217740727.3257 # total power usage of alu_cc3
resultbus_power_cc3    216161892.3931 # total power usage of resultbus_cc3
clock_power_cc3        906264504.4326 # total power usage of clock_cc3
avg_rename_power_cc3         0.6706 # avg power usage of rename unit_cc3
avg_bpred_power_cc3          0.3336 # avg power usage of bpred unit_cc3
avg_window_power_cc3         5.9108 # avg power usage of instruction window_cc3
avg_lsq_power_cc3            0.2413 # avg power usage of instruction lsq_cc3
avg_regfile_power_cc3       16.6578 # avg power usage of arch. regfile_cc3
avg_icache_power_cc3         1.7527 # avg power usage of icache_cc3
avg_dcache_power_cc3         2.4734 # avg power usage of dcache_cc3
avg_dcache2_power_cc3        0.3744 # avg power usage of dcache2_cc3
avg_alu_power_cc3            3.4785 # avg power usage of alu_cc3
avg_resultbus_power_cc3       3.4532 # avg power usage of resultbus_cc3
avg_clock_power_cc3         14.4778 # avg power usage of clock_cc3
fetch_stage_power_cc3  130599400.2656 # total power usage of fetch stage_cc3
dispatch_stage_power_cc3 41975600.3063 # total power usage of dispatch stage_cc3
issue_stage_power_cc3  997271907.7387 # total power usage of issue stage_cc3
avg_fetch_power_cc3          2.0864 # average power of fetch unit per cycle_cc3
avg_dispatch_power_cc3       0.6706 # average power of dispatch unit per cycle_cc3
avg_issue_power_cc3         15.9316 # average power of issue unit per cycle_cc3
total_power_cycle_cc3  3118839853.6031 # total power per cycle_cc3
avg_total_power_cycle_cc3      49.8242 # average total power per cycle_cc3
avg_total_power_insn_cc3      31.1884 # average total power per insn_cc3
total_rename_access       100000002 # total number accesses of rename unit
total_bpred_access                0 # total number accesses of bpred unit
total_window_access       399487111 # total number accesses of instruction window
total_lsq_access           41020437 # total number accesses of load/store queue
total_regfile_access      150216358 # total number accesses of arch. regfile
total_icache_access       378136935 # total number accesses of icache
total_dcache_access        40652548 # total number accesses of dcache
total_dcache2_access        3117206 # total number accesses of dcache2
total_alu_access           99645770 # total number accesses of alu
total_resultbus_access    116429210 # total number accesses of resultbus
avg_rename_access            1.5975 # avg number accesses of rename unit
avg_bpred_access             0.0000 # avg number accesses of bpred unit
avg_window_access            6.3819 # avg number accesses of instruction window
avg_lsq_access               0.6553 # avg number accesses of lsq
avg_regfile_access           2.3997 # avg number accesses of arch. regfile
avg_icache_access            6.0408 # avg number accesses of icache
avg_dcache_access            0.6494 # avg number accesses of dcache
avg_dcache2_access           0.0498 # avg number accesses of dcache2
avg_alu_access               1.5919 # avg number accesses of alu
avg_resultbus_access         1.8600 # avg number accesses of resultbus
max_rename_access                16 # max number accesses of rename unit
max_bpred_access                  0 # max number accesses of bpred unit
max_window_access                30 # max number accesses of instruction window
max_lsq_access                    6 # max number accesses of load/store queue
max_regfile_access               19 # max number accesses of arch. regfile
max_icache_access                32 # max number accesses of icache
max_dcache_access                 4 # max number accesses of dcache
max_dcache2_access                6 # max number accesses of dcache2
max_alu_access                    6 # max number accesses of alu
max_resultbus_access              8 # max number accesses of resultbus
max_cycle_power_cc1        240.3847 # maximum cycle power usage of cc1
max_cycle_power_cc2        130.2622 # maximum cycle power usage of cc2
max_cycle_power_cc3        140.2663 # maximum cycle power usage of cc3
sim_invalid_addrs                 0 # total non-speculative bogus addresses seen (debug var)
ld_text_base           0x0120000000 # program text (code) segment base
ld_text_size                1990656 # program text (code) size in bytes
ld_data_base           0x0140000000 # program initialized data segment base
ld_data_size                 306320 # program init'ed `.data' and uninit'ed `.bss' size in bytes
ld_stack_base          0x011ff9b000 # program stack segment base (highest address in stack)
ld_stack_size                 16384 # program initial stack size
ld_prog_entry          0x0120128140 # program entry point (initial PC)
ld_environ_base        0x011ff7f0b0 # program environment base address address
ld_target_big_endian              0 # target executable endian-ness, non-zero if big endian
mem.page_count                 5831 # total number of pages allocated
mem.page_mem                 46648k # total size of memory pages allocated
mem.ptab_misses               56866 # total first level page table misses
mem.ptab_accesses        1374029996 # total page table accesses
mem.ptab_miss_rate           0.0000 # first level page table miss rate

