sim-outorder: SimpleScalar/Alpha Tool Set version 3.0 of August, 2003.
Copyright (c) 1994-2003 by Todd M. Austin, Ph.D. and SimpleScalar, LLC.
All Rights Reserved. This version of SimpleScalar is licensed for academic
non-commercial use.  No portion of this work may be used by any commercial
entity, or for any commercial purpose, without the prior written permission
of SimpleScalar, LLC (info@simplescalar.com).


Processor Parameters:
Issue Width: 32
Window Size: 16
Number of Virtual Registers: 32
Number of Physical Registers: 16
Datapath Width: 64
Total Power Consumption: 287.872
Branch Predictor Power Consumption: 3.33649  (1.17%)
 branch target buffer power (W): 2.49493
 local predict power (W): 0.574771
 global predict power (W): 0.0996078
 chooser power (W): 0.0702439
 RAS power (W): 0.0969383
Rename Logic Power Consumption: 6.93687  (2.43%)
 Instruction Decode Power (W): 0.127932
 RAT decode_power (W): 0.908115
 RAT wordline_power (W): 0.455623
 RAT bitline_power (W): 4.54351
 DCL Comparators (W): 0.901689
Instruction Window Power Consumption: 52.3166  (18.3%)
 tagdrive (W): 1.70315
 tagmatch (W): 0.455769
 Selection Logic (W): 0.107374
 decode_power (W): 0.426003
 wordline_power (W): 4.02565
 bitline_power (W): 45.5986
Load/Store Queue Power Consumption: 0.963281  (0.337%)
 tagdrive (W): 0.457232
 tagmatch (W): 0.100875
 decode_power (W): 0.00799577
 wordline_power (W): 0.0150119
 bitline_power (W): 0.382166
Arch. Register File Power Consumption: 75.6732  (26.5%)
 decode_power (W): 0.908115
 wordline_power (W): 4.02565
 bitline_power (W): 70.7394
Result Bus Power Consumption: 37.3633  (13.1%)
Total Clock Power: 77.7669  (27.2%)
Int ALU Power: 4.66013  (1.63%)
FP ALU Power: 14.281  (5%)
Instruction Cache Power Consumption: 2.76773  (0.968%)
 decode_power (W): 0.151353
 wordline_power (W): 0.180479
 bitline_power (W): 1.42251
 senseamp_power (W): 0.768
 tagarray_power (W): 0.245382
Itlb_power (W): 0.264936 (0.0927%)
Data Cache Power Consumption: 5.53546  (1.94%)
 decode_power (W): 0.302705
 wordline_power (W): 0.360958
 bitline_power (W): 2.84503
 senseamp_power (W): 1.536
 tagarray_power (W): 0.490764
Dtlb_power (W): 0.903441 (0.316%)
Level 2 Cache Power Consumption: 3.10298 (1.09%)
 decode_power (W): 0.19487
 wordline_power (W): 0.0430878
 bitline_power (W): 1.77274
 senseamp_power (W): 0.192
 tagarray_power (W): 0.900275
sim: loading EIO file: ../benchmarks/197.parser.spec_ref.eio.gz
sim: command line: ./sim-outorder -config ../configs/current.config ../benchmarks/197.parser.spec_ref.eio.gz 

sim: simulation started @ Mon Nov 23 20:58:35 2015, options follow:

sim-outorder: This simulator implements a very detailed out-of-order issue
superscalar processor with a two-level memory system and speculative
execution support.  This simulator is a performance simulator, tracking the
latency of all pipeline operations.

# -config                     # load configuration from a file
# -dumpconfig                 # dump configuration to a file
# -h                    false # print help message    
# -v                    false # verbose operation     
# -d                    false # enable debug message  
# -i                    false # start in Dlite debugger
-seed                       1 # random number generator seed (0 for timer seed)
# -q                    false # initialize and terminate immediately
# -chkpt               <null> # restore EIO trace execution from <fname>
# -redir:sim     ../results/13_12_ugh/197.parser.spec_ref.eio.gz.out # redirect simulator output to file (non-interactive only)
# -redir:prog       /dev/null # redirect simulated program output to file
-nice                       0 # simulator scheduling priority
-freq            600000000.0000 # frequency             
-max:inst           100000000 # maximum number of inst's to execute
-fastfwd                    0 # number of insts skipped before timing starts
# -ptrace              <null> # generate pipetrace, i.e., <fname|stdout|stderr> <range>
-fetch:ifqsize             32 # instruction fetch queue size (in insts)
-fetch:mplat                3 # extra branch mis-prediction latency
-fetch:speed                1 # speed of front-end of machine relative to execution core
-bpred                perfect # branch predictor type {nottaken|taken|perfect|bimod|2lev|comb}
-bpred:bimod     2048 # bimodal predictor config (<table size>)
-bpred:2lev      1 16384 4 0 # 2-level predictor config (<l1size> <l2size> <hist_size> <xor>)
-bpred:comb      1024 # combining predictor config (<meta_table_size>)
-bpred:ras                  8 # return address stack size (0 for no return stack)
-bpred:btb       512 4 # BTB config (<num_sets> <associativity>)
# -bpred:spec_update       <null> # speculative predictors update in {ID|WB} (default non-spec)
-decode:width              32 # instruction decode B/W (insts/cycle)
-issue:width               32 # instruction issue B/W (insts/cycle)
-issue:inorder          false # run pipeline with in-order issue
-issue:wrongpath         true # issue instructions down wrong execution paths
-commit:width               4 # instruction commit B/W (insts/cycle)
-ruu:size                  16 # register update unit (RUU) size
-lsq:size                   8 # load/store queue (LSQ) size
-cache:dl1       dl1:32:64:8:f # l1 data cache config, i.e., {<config>|none}
-cache:dl1lat               1 # l1 data cache hit latency (in cycles)
-cache:dl2       dl2:256:64:8:f # l2 data cache config, i.e., {<config>|none}
-cache:dl2lat               2 # l2 data cache hit latency (in cycles)
-cache:il1       il1:32:64:8:f # l1 inst cache config, i.e., {<config>|dl1|dl2|none}
-cache:il1lat               1 # l1 instruction cache hit latency (in cycles)
-cache:il2                dl2 # l2 instruction cache config, i.e., {<config>|dl2|none}
-cache:il2lat               2 # l2 instruction cache hit latency (in cycles)
-cache:flush            false # flush caches on system calls
-cache:icompress        false # convert 64-bit inst addresses to 32-bit inst equivalents
-mem:lat         103 1 # memory access latency (<first_chunk> <inter_chunk>)
-mem:width                  8 # memory access bus width (in bytes)
-tlb:itlb        itlb:16:4096:4:l # instruction TLB config, i.e., {<config>|none}
-tlb:dtlb        dtlb:32:4096:4:l # data TLB config, i.e., {<config>|none}
-tlb:lat                   30 # inst/data TLB miss latency (in cycles)
-res:ialu                   4 # total number of integer ALU's available
-res:imult                  1 # total number of integer multiplier/dividers available
-res:memport                2 # total number of memory system ports available (to CPU)
-res:fpalu                  4 # total number of floating point ALU's available
-res:fpmult                 1 # total number of floating point multiplier/dividers available
# -pcstat              <null> # profile stat(s) against text addr's (mult uses ok)
-bugcompat              false # operate in backward-compatible bugs mode (for testing only)

  Pipetrace range arguments are formatted as follows:

    {{@|#}<start>}:{{@|#|+}<end>}

  Both ends of the range are optional, if neither are specified, the entire
  execution is traced.  Ranges that start with a `@' designate an address
  range to be traced, those that start with an `#' designate a cycle count
  range.  All other range values represent an instruction count range.  The
  second argument, if specified with a `+', indicates a value relative
  to the first argument, e.g., 1000:+100 == 1000:1100.  Program symbols may
  be used in all contexts.

    Examples:   -ptrace FOO.trc #0:#1000
                -ptrace BAR.trc @2000:
                -ptrace BLAH.trc :1500
                -ptrace UXXE.trc :
                -ptrace FOOBAR.trc @main:+278

  Branch predictor configuration examples for 2-level predictor:
    Configurations:   N, M, W, X
      N   # entries in first level (# of shift register(s))
      W   width of shift register(s)
      M   # entries in 2nd level (# of counters, or other FSM)
      X   (yes-1/no-0) xor history and address for 2nd level index
    Sample predictors:
      GAg     : 1, W, 2^W, 0
      GAp     : 1, W, M (M > 2^W), 0
      PAg     : N, W, 2^W, 0
      PAp     : N, W, M (M == 2^(N+W)), 0
      gshare  : 1, W, 2^W, 1
  Predictor `comb' combines a bimodal and a 2-level predictor.

  The cache config parameter <config> has the following format:

    <name>:<nsets>:<bsize>:<assoc>:<repl>

    <name>   - name of the cache being defined
    <nsets>  - number of sets in the cache
    <bsize>  - block size of the cache
    <assoc>  - associativity of the cache
    <repl>   - block replacement strategy, 'l'-LRU, 'f'-FIFO, 'r'-random

    Examples:   -cache:dl1 dl1:4096:32:1:l
                -dtlb dtlb:128:4096:32:r

  Cache levels can be unified by pointing a level of the instruction cache
  hierarchy at the data cache hiearchy using the "dl1" and "dl2" cache
  configuration arguments.  Most sensible combinations are supported, e.g.,

    A unified l2 cache (il2 is pointed at dl2):
      -cache:il1 il1:128:64:1:l -cache:il2 dl2
      -cache:dl1 dl1:256:32:1:l -cache:dl2 ul2:1024:64:2:l

    Or, a fully unified cache hierarchy (il1 pointed at dl1):
      -cache:il1 dl1
      -cache:dl1 ul1:256:32:1:l -cache:dl2 ul2:1024:64:2:l



sim: ** starting performance simulation **

sim: ** simulation statistics **
sim_num_insn              100000000 # total number of instructions committed
sim_num_refs               36930324 # total number of loads and stores committed
sim_num_loads              27152726 # total number of loads committed
sim_num_stores         9777598.0000 # total number of stores committed
sim_num_branches           15299216 # total number of branches committed
sim_elapsed_time                139 # total simulation time in seconds
sim_inst_rate           719424.4604 # simulation speed (in insts/sec)
sim_total_insn            100000000 # total number of instructions executed
sim_total_refs             36930324 # total number of loads and stores executed
sim_total_loads            27152726 # total number of loads executed
sim_total_stores       9777598.0000 # total number of stores executed
sim_total_branches         15299216 # total number of branches executed
sim_cycle                  98872412 # total simulation time in cycles
sim_IPC                      1.0114 # instructions per cycle
sim_CPI                      0.9887 # cycles per instruction
sim_exec_BW                  1.0114 # total instructions (mis-spec + committed) per cycle
sim_IPB                      6.5363 # instruction per branch
IFQ_count                3144371017 # cumulative IFQ occupancy
IFQ_fcount                 98247224 # cumulative IFQ full count
ifq_occupancy               31.8023 # avg IFQ occupancy (insn's)
ifq_rate                     1.0114 # avg IFQ dispatch rate (insn/cycle)
ifq_latency                 31.4437 # avg IFQ occupant latency (cycle's)
ifq_full                     0.9937 # fraction of time (cycle's) IFQ was full
RUU_count                1492502307 # cumulative RUU occupancy
RUU_fcount                 69429004 # cumulative RUU full count
ruu_occupancy               15.0952 # avg RUU occupancy (insn's)
ruu_rate                     1.0114 # avg RUU dispatch rate (insn/cycle)
ruu_latency                 14.9250 # avg RUU occupant latency (cycle's)
ruu_full                     0.7022 # fraction of time (cycle's) RUU was full
LSQ_count                 543158865 # cumulative LSQ occupancy
LSQ_fcount                 29657115 # cumulative LSQ full count
lsq_occupancy                5.4935 # avg LSQ occupancy (insn's)
lsq_rate                     1.0114 # avg LSQ dispatch rate (insn/cycle)
lsq_latency                  5.4316 # avg LSQ occupant latency (cycle's)
lsq_full                     0.3000 # fraction of time (cycle's) LSQ was full
sim_slip                 2172591419 # total number of slip cycles
avg_sim_slip                21.7259 # the average slip between issue and retirement
il1.accesses              400844521 # total number of accesses
il1.hits                  400838612 # total number of hits
il1.misses                     5909 # total number of misses
il1.replacements               5653 # total number of replacements
il1.writebacks                    0 # total number of writebacks
il1.invalidations                 0 # total number of invalidations
il1.miss_rate                0.0000 # miss rate (i.e., misses/ref)
il1.repl_rate                0.0000 # replacement rate (i.e., repls/ref)
il1.wb_rate                  0.0000 # writeback rate (i.e., wrbks/ref)
il1.inv_rate                 0.0000 # invalidation rate (i.e., invs/ref)
dl1.accesses               36688673 # total number of accesses
dl1.hits                   35369180 # total number of hits
dl1.misses                  1319493 # total number of misses
dl1.replacements            1319237 # total number of replacements
dl1.writebacks               461697 # total number of writebacks
dl1.invalidations                 0 # total number of invalidations
dl1.miss_rate                0.0360 # miss rate (i.e., misses/ref)
dl1.repl_rate                0.0360 # replacement rate (i.e., repls/ref)
dl1.wb_rate                  0.0126 # writeback rate (i.e., wrbks/ref)
dl1.inv_rate                 0.0000 # invalidation rate (i.e., invs/ref)
dl2.accesses                1787099 # total number of accesses
dl2.hits                    1156157 # total number of hits
dl2.misses                   630942 # total number of misses
dl2.replacements             628894 # total number of replacements
dl2.writebacks               328830 # total number of writebacks
dl2.invalidations                 0 # total number of invalidations
dl2.miss_rate                0.3531 # miss rate (i.e., misses/ref)
dl2.repl_rate                0.3519 # replacement rate (i.e., repls/ref)
dl2.wb_rate                  0.1840 # writeback rate (i.e., wrbks/ref)
dl2.inv_rate                 0.0000 # invalidation rate (i.e., invs/ref)
itlb.accesses             400844521 # total number of accesses
itlb.hits                 400844481 # total number of hits
itlb.misses                      40 # total number of misses
itlb.replacements                 0 # total number of replacements
itlb.writebacks                   0 # total number of writebacks
itlb.invalidations                0 # total number of invalidations
itlb.miss_rate               0.0000 # miss rate (i.e., misses/ref)
itlb.repl_rate               0.0000 # replacement rate (i.e., repls/ref)
itlb.wb_rate                 0.0000 # writeback rate (i.e., wrbks/ref)
itlb.inv_rate                0.0000 # invalidation rate (i.e., invs/ref)
dtlb.accesses              36930324 # total number of accesses
dtlb.hits                  36883664 # total number of hits
dtlb.misses                   46660 # total number of misses
dtlb.replacements             46532 # total number of replacements
dtlb.writebacks                   0 # total number of writebacks
dtlb.invalidations                0 # total number of invalidations
dtlb.miss_rate               0.0013 # miss rate (i.e., misses/ref)
dtlb.repl_rate               0.0013 # replacement rate (i.e., repls/ref)
dtlb.wb_rate                 0.0000 # writeback rate (i.e., wrbks/ref)
dtlb.inv_rate                0.0000 # invalidation rate (i.e., invs/ref)
rename_power           685865400.0850 # total power usage of rename unit
bpred_power            329886667.6865 # total power usage of bpred unit
window_power           5172665339.4645 # total power usage of instruction window
lsq_power              95241928.2462 # total power usage of load/store queue
regfile_power          7481991768.4305 # total power usage of arch. regfile
icache_power           299846822.8613 # total power usage of icache
dcache_power           636629383.1976 # total power usage of dcache
dcache2_power          306798797.9580 # total power usage of dcache2
alu_power              1872759702.2369 # total power usage of alu
falu_power             1412001360.9383 # total power usage of falu
resultbus_power        3694201604.0829 # total power usage of resultbus
clock_power            7689001945.6253 # total power usage of clock
avg_rename_power             6.9369 # avg power usage of rename unit
avg_bpred_power              3.3365 # avg power usage of bpred unit
avg_window_power            52.3166 # avg power usage of instruction window
avg_lsq_power                0.9633 # avg power usage of lsq
avg_regfile_power           75.6732 # avg power usage of arch. regfile
avg_icache_power             3.0327 # avg power usage of icache
avg_dcache_power             6.4389 # avg power usage of dcache
avg_dcache2_power            3.1030 # avg power usage of dcache2
avg_alu_power               18.9412 # avg power usage of alu
avg_falu_power              14.2810 # avg power usage of falu
avg_resultbus_power         37.3633 # avg power usage of resultbus
avg_clock_power             77.7669 # avg power usage of clock
fetch_stage_power      629733490.5478 # total power usage of fetch stage
dispatch_stage_power   685865400.0850 # total power usage of dispatch stage
issue_stage_power      11778296755.1862 # total power usage of issue stage
avg_fetch_power              6.3692 # average power of fetch unit per cycle
avg_dispatch_power           6.9369 # average power of dispatch unit per cycle
avg_issue_power            119.1262 # average power of issue unit per cycle
total_power            28264889359.8749 # total power per cycle
avg_total_power_cycle      285.8724 # average total power per cycle
avg_total_power_cycle_nofp_nod2     268.4883 # average total power per cycle
avg_total_power_insn       282.6489 # average total power per insn
avg_total_power_insn_nofp_nod2     265.4609 # average total power per insn
rename_power_cc1       268974191.0389 # total power usage of rename unit_cc1
bpred_power_cc1              0.0000 # total power usage of bpred unit_cc1
window_power_cc1       2110266666.3691 # total power usage of instruction window_cc1
lsq_power_cc1          13562265.4030 # total power usage of lsq_cc1
regfile_power_cc1      2679509956.9686 # total power usage of arch. regfile_cc1
icache_power_cc1       117582204.4047 # total power usage of icache_cc1
dcache_power_cc1       154535192.0653 # total power usage of dcache_cc1
dcache2_power_cc1      4063937.6486 # total power usage of dcache2_cc1
alu_power_cc1          196948140.9996 # total power usage of alu_cc1
resultbus_power_cc1    1528456784.7736 # total power usage of resultbus_cc1
clock_power_cc1        1921947119.8324 # total power usage of clock_cc1
avg_rename_power_cc1         2.7204 # avg power usage of rename unit_cc1
avg_bpred_power_cc1          0.0000 # avg power usage of bpred unit_cc1
avg_window_power_cc1        21.3433 # avg power usage of instruction window_cc1
avg_lsq_power_cc1            0.1372 # avg power usage of lsq_cc1
avg_regfile_power_cc1       27.1007 # avg power usage of arch. regfile_cc1
avg_icache_power_cc1         1.1892 # avg power usage of icache_cc1
avg_dcache_power_cc1         1.5630 # avg power usage of dcache_cc1
avg_dcache2_power_cc1        0.0411 # avg power usage of dcache2_cc1
avg_alu_power_cc1            1.9919 # avg power usage of alu_cc1
avg_resultbus_power_cc1      15.4589 # avg power usage of resultbus_cc1
avg_clock_power_cc1         19.4387 # avg power usage of clock_cc1
fetch_stage_power_cc1  117582204.4047 # total power usage of fetch stage_cc1
dispatch_stage_power_cc1 268974191.0389 # total power usage of dispatch stage_cc1
issue_stage_power_cc1  4007832987.2592 # total power usage of issue stage_cc1
avg_fetch_power_cc1          1.1892 # average power of fetch unit per cycle_cc1
avg_dispatch_power_cc1       2.7204 # average power of dispatch unit per cycle_cc1
avg_issue_power_cc1         40.5354 # average power of issue unit per cycle_cc1
total_power_cycle_cc1  8995846459.5038 # total power per cycle_cc1
avg_total_power_cycle_cc1      90.9844 # average total power per cycle_cc1
avg_total_power_insn_cc1      89.9585 # average total power per insn_cc1
rename_power_cc2       21677729.2258 # total power usage of rename unit_cc2
bpred_power_cc2              0.0000 # total power usage of bpred unit_cc2
window_power_cc2       242732236.6988 # total power usage of instruction window_cc2
lsq_power_cc2          9376258.5696 # total power usage of lsq_cc2
regfile_power_cc2      784864795.7918 # total power usage of arch. regfile_cc2
icache_power_cc2       117582204.4047 # total power usage of icache_cc2
dcache_power_cc2       118117312.6429 # total power usage of dcache_cc2
dcache2_power_cc2      2772663.3432 # total power usage of dcache2_cc2
alu_power_cc2          116536624.4005 # total power usage of alu_cc2
resultbus_power_cc2    122438029.8171 # total power usage of resultbus_cc2
clock_power_cc2        433828973.6097 # total power usage of clock_cc2
avg_rename_power_cc2         0.2192 # avg power usage of rename unit_cc2
avg_bpred_power_cc2          0.0000 # avg power usage of bpred unit_cc2
avg_window_power_cc2         2.4550 # avg power usage of instruction window_cc2
avg_lsq_power_cc2            0.0948 # avg power usage of instruction lsq_cc2
avg_regfile_power_cc2        7.9382 # avg power usage of arch. regfile_cc2
avg_icache_power_cc2         1.1892 # avg power usage of icache_cc2
avg_dcache_power_cc2         1.1946 # avg power usage of dcache_cc2
avg_dcache2_power_cc2        0.0280 # avg power usage of dcache2_cc2
avg_alu_power_cc2            1.1787 # avg power usage of alu_cc2
avg_resultbus_power_cc2       1.2383 # avg power usage of resultbus_cc2
avg_clock_power_cc2          4.3878 # avg power usage of clock_cc2
fetch_stage_power_cc2  117582204.4047 # total power usage of fetch stage_cc2
dispatch_stage_power_cc2 21677729.2258 # total power usage of dispatch stage_cc2
issue_stage_power_cc2  611973125.4722 # total power usage of issue stage_cc2
avg_fetch_power_cc2          1.1892 # average power of fetch unit per cycle_cc2
avg_dispatch_power_cc2       0.2192 # average power of dispatch unit per cycle_cc2
avg_issue_power_cc2          6.1895 # average power of issue unit per cycle_cc2
total_power_cycle_cc2  1969926828.5042 # total power per cycle_cc2
avg_total_power_cycle_cc2      19.9239 # average total power per cycle_cc2
avg_total_power_insn_cc2      19.6993 # average total power per insn_cc2
rename_power_cc3       63366850.1112 # total power usage of rename unit_cc3
bpred_power_cc3        32988666.7829 # total power usage of bpred unit_cc3
window_power_cc3       523167645.6409 # total power usage of instruction window_cc3
lsq_power_cc3          17536322.4926 # total power usage of lsq_cc3
regfile_power_cc3      1233024541.3313 # total power usage of arch. regfile_cc3
icache_power_cc3       135808666.3955 # total power usage of icache_cc3
dcache_power_cc3       167021550.8323 # total power usage of dcache_cc3
dcache2_power_cc3      33049151.1001 # total power usage of dcache2_cc3
alu_power_cc3          284117779.8818 # total power usage of alu_cc3
resultbus_power_cc3    328822799.8946 # total power usage of resultbus_cc3
clock_power_cc3        993738607.9771 # total power usage of clock_cc3
avg_rename_power_cc3         0.6409 # avg power usage of rename unit_cc3
avg_bpred_power_cc3          0.3336 # avg power usage of bpred unit_cc3
avg_window_power_cc3         5.2913 # avg power usage of instruction window_cc3
avg_lsq_power_cc3            0.1774 # avg power usage of instruction lsq_cc3
avg_regfile_power_cc3       12.4709 # avg power usage of arch. regfile_cc3
avg_icache_power_cc3         1.3736 # avg power usage of icache_cc3
avg_dcache_power_cc3         1.6893 # avg power usage of dcache_cc3
avg_dcache2_power_cc3        0.3343 # avg power usage of dcache2_cc3
avg_alu_power_cc3            2.8736 # avg power usage of alu_cc3
avg_resultbus_power_cc3       3.3257 # avg power usage of resultbus_cc3
avg_clock_power_cc3         10.0507 # avg power usage of clock_cc3
fetch_stage_power_cc3  168797333.1784 # total power usage of fetch stage_cc3
dispatch_stage_power_cc3 63366850.1112 # total power usage of dispatch stage_cc3
issue_stage_power_cc3  1353715249.8422 # total power usage of issue stage_cc3
avg_fetch_power_cc3          1.7072 # average power of fetch unit per cycle_cc3
avg_dispatch_power_cc3       0.6409 # average power of dispatch unit per cycle_cc3
avg_issue_power_cc3         13.6915 # average power of issue unit per cycle_cc3
total_power_cycle_cc3  3812642582.4402 # total power per cycle_cc3
avg_total_power_cycle_cc3      38.5612 # average total power per cycle_cc3
avg_total_power_insn_cc3      38.1264 # average total power per insn_cc3
total_rename_access       100000000 # total number accesses of rename unit
total_bpred_access                0 # total number accesses of bpred unit
total_window_access       377239776 # total number accesses of instruction window
total_lsq_access           37171975 # total number accesses of load/store queue
total_regfile_access      139982369 # total number accesses of arch. regfile
total_icache_access       400844521 # total number accesses of icache
total_dcache_access        36688673 # total number accesses of dcache
total_dcache2_access        1787099 # total number accesses of dcache2
total_alu_access           99904124 # total number accesses of alu
total_resultbus_access    111853498 # total number accesses of resultbus
avg_rename_access            1.0114 # avg number accesses of rename unit
avg_bpred_access             0.0000 # avg number accesses of bpred unit
avg_window_access            3.8154 # avg number accesses of instruction window
avg_lsq_access               0.3760 # avg number accesses of lsq
avg_regfile_access           1.4158 # avg number accesses of arch. regfile
avg_icache_access            4.0542 # avg number accesses of icache
avg_dcache_access            0.3711 # avg number accesses of dcache
avg_dcache2_access           0.0181 # avg number accesses of dcache2
avg_alu_access               1.0104 # avg number accesses of alu
avg_resultbus_access         1.1313 # avg number accesses of resultbus
max_rename_access                16 # max number accesses of rename unit
max_bpred_access                  0 # max number accesses of bpred unit
max_window_access                29 # max number accesses of instruction window
max_lsq_access                    7 # max number accesses of load/store queue
max_regfile_access               18 # max number accesses of arch. regfile
max_icache_access                32 # max number accesses of icache
max_dcache_access                 4 # max number accesses of dcache
max_dcache2_access                6 # max number accesses of dcache2
max_alu_access                    6 # max number accesses of alu
max_resultbus_access              8 # max number accesses of resultbus
max_cycle_power_cc1        239.6212 # maximum cycle power usage of cc1
max_cycle_power_cc2        117.5822 # maximum cycle power usage of cc2
max_cycle_power_cc3        130.4597 # maximum cycle power usage of cc3
sim_invalid_addrs                 0 # total non-speculative bogus addresses seen (debug var)
ld_text_base           0x0120000000 # program text (code) segment base
ld_text_size                 319488 # program text (code) size in bytes
ld_data_base           0x0140000000 # program initialized data segment base
ld_data_size                 288480 # program init'ed `.data' and uninit'ed `.bss' size in bytes
ld_stack_base          0x011ff9b000 # program stack segment base (highest address in stack)
ld_stack_size                 16384 # program initial stack size
ld_prog_entry          0x012001e99c # program entry point (initial PC)
ld_environ_base        0x011ff966c0 # program environment base address address
ld_target_big_endian              0 # target executable endian-ness, non-zero if big endian
mem.page_count                 4714 # total number of pages allocated
mem.page_mem                 37712k # total size of memory pages allocated
mem.ptab_misses               31224 # total first level page table misses
mem.ptab_accesses        1382068016 # total page table accesses
mem.ptab_miss_rate           0.0000 # first level page table miss rate

