sim-outorder: SimpleScalar/Alpha Tool Set version 3.0 of August, 2003.
Copyright (c) 1994-2003 by Todd M. Austin, Ph.D. and SimpleScalar, LLC.
All Rights Reserved. This version of SimpleScalar is licensed for academic
non-commercial use.  No portion of this work may be used by any commercial
entity, or for any commercial purpose, without the prior written permission
of SimpleScalar, LLC (info@simplescalar.com).


Processor Parameters:
Issue Width: 32
Window Size: 16
Number of Virtual Registers: 32
Number of Physical Registers: 16
Datapath Width: 64
Total Power Consumption: 287.872
Branch Predictor Power Consumption: 3.33649  (1.17%)
 branch target buffer power (W): 2.49493
 local predict power (W): 0.574771
 global predict power (W): 0.0996078
 chooser power (W): 0.0702439
 RAS power (W): 0.0969383
Rename Logic Power Consumption: 6.93687  (2.43%)
 Instruction Decode Power (W): 0.127932
 RAT decode_power (W): 0.908115
 RAT wordline_power (W): 0.455623
 RAT bitline_power (W): 4.54351
 DCL Comparators (W): 0.901689
Instruction Window Power Consumption: 52.3166  (18.3%)
 tagdrive (W): 1.70315
 tagmatch (W): 0.455769
 Selection Logic (W): 0.107374
 decode_power (W): 0.426003
 wordline_power (W): 4.02565
 bitline_power (W): 45.5986
Load/Store Queue Power Consumption: 0.963281  (0.337%)
 tagdrive (W): 0.457232
 tagmatch (W): 0.100875
 decode_power (W): 0.00799577
 wordline_power (W): 0.0150119
 bitline_power (W): 0.382166
Arch. Register File Power Consumption: 75.6732  (26.5%)
 decode_power (W): 0.908115
 wordline_power (W): 4.02565
 bitline_power (W): 70.7394
Result Bus Power Consumption: 37.3633  (13.1%)
Total Clock Power: 77.7669  (27.2%)
Int ALU Power: 4.66013  (1.63%)
FP ALU Power: 14.281  (5%)
Instruction Cache Power Consumption: 2.76773  (0.968%)
 decode_power (W): 0.151353
 wordline_power (W): 0.180479
 bitline_power (W): 1.42251
 senseamp_power (W): 0.768
 tagarray_power (W): 0.245382
Itlb_power (W): 0.264936 (0.0927%)
Data Cache Power Consumption: 5.53546  (1.94%)
 decode_power (W): 0.302705
 wordline_power (W): 0.360958
 bitline_power (W): 2.84503
 senseamp_power (W): 1.536
 tagarray_power (W): 0.490764
Dtlb_power (W): 0.903441 (0.316%)
Level 2 Cache Power Consumption: 3.10298 (1.09%)
 decode_power (W): 0.19487
 wordline_power (W): 0.0430878
 bitline_power (W): 1.77274
 senseamp_power (W): 0.192
 tagarray_power (W): 0.900275
sim: loading EIO file: ../benchmarks/253.perlbmk.diffmail-ref.eio.gz
sim: command line: ./sim-outorder -config ../configs/current.config ../benchmarks/253.perlbmk.diffmail-ref.eio.gz 

sim: simulation started @ Mon Nov 23 20:58:35 2015, options follow:

sim-outorder: This simulator implements a very detailed out-of-order issue
superscalar processor with a two-level memory system and speculative
execution support.  This simulator is a performance simulator, tracking the
latency of all pipeline operations.

# -config                     # load configuration from a file
# -dumpconfig                 # dump configuration to a file
# -h                    false # print help message    
# -v                    false # verbose operation     
# -d                    false # enable debug message  
# -i                    false # start in Dlite debugger
-seed                       1 # random number generator seed (0 for timer seed)
# -q                    false # initialize and terminate immediately
# -chkpt               <null> # restore EIO trace execution from <fname>
# -redir:sim     ../results/13_12_ugh/253.perlbmk.diffmail-ref.eio.gz.out # redirect simulator output to file (non-interactive only)
# -redir:prog       /dev/null # redirect simulated program output to file
-nice                       0 # simulator scheduling priority
-freq            600000000.0000 # frequency             
-max:inst           100000000 # maximum number of inst's to execute
-fastfwd                    0 # number of insts skipped before timing starts
# -ptrace              <null> # generate pipetrace, i.e., <fname|stdout|stderr> <range>
-fetch:ifqsize             32 # instruction fetch queue size (in insts)
-fetch:mplat                3 # extra branch mis-prediction latency
-fetch:speed                1 # speed of front-end of machine relative to execution core
-bpred                perfect # branch predictor type {nottaken|taken|perfect|bimod|2lev|comb}
-bpred:bimod     2048 # bimodal predictor config (<table size>)
-bpred:2lev      1 16384 4 0 # 2-level predictor config (<l1size> <l2size> <hist_size> <xor>)
-bpred:comb      1024 # combining predictor config (<meta_table_size>)
-bpred:ras                  8 # return address stack size (0 for no return stack)
-bpred:btb       512 4 # BTB config (<num_sets> <associativity>)
# -bpred:spec_update       <null> # speculative predictors update in {ID|WB} (default non-spec)
-decode:width              32 # instruction decode B/W (insts/cycle)
-issue:width               32 # instruction issue B/W (insts/cycle)
-issue:inorder          false # run pipeline with in-order issue
-issue:wrongpath         true # issue instructions down wrong execution paths
-commit:width               4 # instruction commit B/W (insts/cycle)
-ruu:size                  16 # register update unit (RUU) size
-lsq:size                   8 # load/store queue (LSQ) size
-cache:dl1       dl1:32:64:8:f # l1 data cache config, i.e., {<config>|none}
-cache:dl1lat               1 # l1 data cache hit latency (in cycles)
-cache:dl2       dl2:256:64:8:f # l2 data cache config, i.e., {<config>|none}
-cache:dl2lat               2 # l2 data cache hit latency (in cycles)
-cache:il1       il1:32:64:8:f # l1 inst cache config, i.e., {<config>|dl1|dl2|none}
-cache:il1lat               1 # l1 instruction cache hit latency (in cycles)
-cache:il2                dl2 # l2 instruction cache config, i.e., {<config>|dl2|none}
-cache:il2lat               2 # l2 instruction cache hit latency (in cycles)
-cache:flush            false # flush caches on system calls
-cache:icompress        false # convert 64-bit inst addresses to 32-bit inst equivalents
-mem:lat         103 1 # memory access latency (<first_chunk> <inter_chunk>)
-mem:width                  8 # memory access bus width (in bytes)
-tlb:itlb        itlb:16:4096:4:l # instruction TLB config, i.e., {<config>|none}
-tlb:dtlb        dtlb:32:4096:4:l # data TLB config, i.e., {<config>|none}
-tlb:lat                   30 # inst/data TLB miss latency (in cycles)
-res:ialu                   4 # total number of integer ALU's available
-res:imult                  1 # total number of integer multiplier/dividers available
-res:memport                2 # total number of memory system ports available (to CPU)
-res:fpalu                  4 # total number of floating point ALU's available
-res:fpmult                 1 # total number of floating point multiplier/dividers available
# -pcstat              <null> # profile stat(s) against text addr's (mult uses ok)
-bugcompat              false # operate in backward-compatible bugs mode (for testing only)

  Pipetrace range arguments are formatted as follows:

    {{@|#}<start>}:{{@|#|+}<end>}

  Both ends of the range are optional, if neither are specified, the entire
  execution is traced.  Ranges that start with a `@' designate an address
  range to be traced, those that start with an `#' designate a cycle count
  range.  All other range values represent an instruction count range.  The
  second argument, if specified with a `+', indicates a value relative
  to the first argument, e.g., 1000:+100 == 1000:1100.  Program symbols may
  be used in all contexts.

    Examples:   -ptrace FOO.trc #0:#1000
                -ptrace BAR.trc @2000:
                -ptrace BLAH.trc :1500
                -ptrace UXXE.trc :
                -ptrace FOOBAR.trc @main:+278

  Branch predictor configuration examples for 2-level predictor:
    Configurations:   N, M, W, X
      N   # entries in first level (# of shift register(s))
      W   width of shift register(s)
      M   # entries in 2nd level (# of counters, or other FSM)
      X   (yes-1/no-0) xor history and address for 2nd level index
    Sample predictors:
      GAg     : 1, W, 2^W, 0
      GAp     : 1, W, M (M > 2^W), 0
      PAg     : N, W, 2^W, 0
      PAp     : N, W, M (M == 2^(N+W)), 0
      gshare  : 1, W, 2^W, 1
  Predictor `comb' combines a bimodal and a 2-level predictor.

  The cache config parameter <config> has the following format:

    <name>:<nsets>:<bsize>:<assoc>:<repl>

    <name>   - name of the cache being defined
    <nsets>  - number of sets in the cache
    <bsize>  - block size of the cache
    <assoc>  - associativity of the cache
    <repl>   - block replacement strategy, 'l'-LRU, 'f'-FIFO, 'r'-random

    Examples:   -cache:dl1 dl1:4096:32:1:l
                -dtlb dtlb:128:4096:32:r

  Cache levels can be unified by pointing a level of the instruction cache
  hierarchy at the data cache hiearchy using the "dl1" and "dl2" cache
  configuration arguments.  Most sensible combinations are supported, e.g.,

    A unified l2 cache (il2 is pointed at dl2):
      -cache:il1 il1:128:64:1:l -cache:il2 dl2
      -cache:dl1 dl1:256:32:1:l -cache:dl2 ul2:1024:64:2:l

    Or, a fully unified cache hierarchy (il1 pointed at dl1):
      -cache:il1 dl1
      -cache:dl1 ul1:256:32:1:l -cache:dl2 ul2:1024:64:2:l



sim: ** starting performance simulation **

sim: ** simulation statistics **
sim_num_insn              100000000 # total number of instructions committed
sim_num_refs               46161587 # total number of loads and stores committed
sim_num_loads              29759422 # total number of loads committed
sim_num_stores         16402165.0000 # total number of stores committed
sim_num_branches           14085061 # total number of branches committed
sim_elapsed_time                138 # total simulation time in seconds
sim_inst_rate           724637.6812 # simulation speed (in insts/sec)
sim_total_insn            100000000 # total number of instructions executed
sim_total_refs             46161587 # total number of loads and stores executed
sim_total_loads            29759422 # total number of loads executed
sim_total_stores       16402165.0000 # total number of stores executed
sim_total_branches         14085061 # total number of branches executed
sim_cycle                  99176144 # total simulation time in cycles
sim_IPC                      1.0083 # instructions per cycle
sim_CPI                      0.9918 # cycles per instruction
sim_exec_BW                  1.0083 # total instructions (mis-spec + committed) per cycle
sim_IPB                      7.0997 # instruction per branch
IFQ_count                1899873273 # cumulative IFQ occupancy
IFQ_fcount                 56824301 # cumulative IFQ full count
ifq_occupancy               19.1566 # avg IFQ occupancy (insn's)
ifq_rate                     1.0083 # avg IFQ dispatch rate (insn/cycle)
ifq_latency                 18.9987 # avg IFQ occupant latency (cycle's)
ifq_full                     0.5730 # fraction of time (cycle's) IFQ was full
RUU_count                 888529151 # cumulative RUU occupancy
RUU_fcount                 24541160 # cumulative RUU full count
ruu_occupancy                8.9591 # avg RUU occupancy (insn's)
ruu_rate                     1.0083 # avg RUU dispatch rate (insn/cycle)
ruu_latency                  8.8853 # avg RUU occupant latency (cycle's)
ruu_full                     0.2475 # fraction of time (cycle's) RUU was full
LSQ_count                 432528030 # cumulative LSQ occupancy
LSQ_fcount                 34053138 # cumulative LSQ full count
lsq_occupancy                4.3612 # avg LSQ occupancy (insn's)
lsq_rate                     1.0083 # avg LSQ dispatch rate (insn/cycle)
lsq_latency                  4.3253 # avg LSQ occupant latency (cycle's)
lsq_full                     0.3434 # fraction of time (cycle's) LSQ was full
sim_slip                 1467218670 # total number of slip cycles
avg_sim_slip                14.6722 # the average slip between issue and retirement
il1.accesses              369806219 # total number of accesses
il1.hits                  367597685 # total number of hits
il1.misses                  2208534 # total number of misses
il1.replacements            2208278 # total number of replacements
il1.writebacks                    0 # total number of writebacks
il1.invalidations                 0 # total number of invalidations
il1.miss_rate                0.0060 # miss rate (i.e., misses/ref)
il1.repl_rate                0.0060 # replacement rate (i.e., repls/ref)
il1.wb_rate                  0.0000 # writeback rate (i.e., wrbks/ref)
il1.inv_rate                 0.0000 # invalidation rate (i.e., invs/ref)
dl1.accesses               45574124 # total number of accesses
dl1.hits                   44801393 # total number of hits
dl1.misses                   772731 # total number of misses
dl1.replacements             772475 # total number of replacements
dl1.writebacks               349518 # total number of writebacks
dl1.invalidations                 0 # total number of invalidations
dl1.miss_rate                0.0170 # miss rate (i.e., misses/ref)
dl1.repl_rate                0.0169 # replacement rate (i.e., repls/ref)
dl1.wb_rate                  0.0077 # writeback rate (i.e., wrbks/ref)
dl1.inv_rate                 0.0000 # invalidation rate (i.e., invs/ref)
dl2.accesses                3330783 # total number of accesses
dl2.hits                    2680551 # total number of hits
dl2.misses                   650232 # total number of misses
dl2.replacements             648184 # total number of replacements
dl2.writebacks               124540 # total number of writebacks
dl2.invalidations                 0 # total number of invalidations
dl2.miss_rate                0.1952 # miss rate (i.e., misses/ref)
dl2.repl_rate                0.1946 # replacement rate (i.e., repls/ref)
dl2.wb_rate                  0.0374 # writeback rate (i.e., wrbks/ref)
dl2.inv_rate                 0.0000 # invalidation rate (i.e., invs/ref)
itlb.accesses             369806219 # total number of accesses
itlb.hits                 369801181 # total number of hits
itlb.misses                    5038 # total number of misses
itlb.replacements              4979 # total number of replacements
itlb.writebacks                   0 # total number of writebacks
itlb.invalidations                0 # total number of invalidations
itlb.miss_rate               0.0000 # miss rate (i.e., misses/ref)
itlb.repl_rate               0.0000 # replacement rate (i.e., repls/ref)
itlb.wb_rate                 0.0000 # writeback rate (i.e., wrbks/ref)
itlb.inv_rate                0.0000 # invalidation rate (i.e., invs/ref)
dtlb.accesses              46161581 # total number of accesses
dtlb.hits                  46134072 # total number of hits
dtlb.misses                   27509 # total number of misses
dtlb.replacements             27382 # total number of replacements
dtlb.writebacks                   0 # total number of writebacks
dtlb.invalidations                0 # total number of invalidations
dtlb.miss_rate               0.0006 # miss rate (i.e., misses/ref)
dtlb.repl_rate               0.0006 # replacement rate (i.e., repls/ref)
dtlb.wb_rate                 0.0000 # writeback rate (i.e., wrbks/ref)
dtlb.inv_rate                0.0000 # invalidation rate (i.e., invs/ref)
rename_power           687972350.4913 # total power usage of rename unit
bpred_power            330900066.0253 # total power usage of bpred unit
window_power           5188555555.4101 # total power usage of instruction window
lsq_power              95534507.5488 # total power usage of load/store queue
regfile_power          7504976140.7077 # total power usage of arch. regfile
icache_power           300767940.0180 # total power usage of icache
dcache_power           638585082.5913 # total power usage of dcache
dcache2_power          307741271.3071 # total power usage of dcache2
alu_power              1878512743.3420 # total power usage of alu
falu_power             1416338971.2861 # total power usage of falu
resultbus_power        3705550040.0997 # total power usage of resultbus
clock_power            7712622244.6118 # total power usage of clock
avg_rename_power             6.9369 # avg power usage of rename unit
avg_bpred_power              3.3365 # avg power usage of bpred unit
avg_window_power            52.3166 # avg power usage of instruction window
avg_lsq_power                0.9633 # avg power usage of lsq
avg_regfile_power           75.6732 # avg power usage of arch. regfile
avg_icache_power             3.0327 # avg power usage of icache
avg_dcache_power             6.4389 # avg power usage of dcache
avg_dcache2_power            3.1030 # avg power usage of dcache2
avg_alu_power               18.9412 # avg power usage of alu
avg_falu_power              14.2810 # avg power usage of falu
avg_resultbus_power         37.3633 # avg power usage of resultbus
avg_clock_power             77.7669 # avg power usage of clock
fetch_stage_power      631668006.0432 # total power usage of fetch stage
dispatch_stage_power   687972350.4913 # total power usage of dispatch stage
issue_stage_power      11814479200.2989 # total power usage of issue stage
avg_fetch_power              6.3692 # average power of fetch unit per cycle
avg_dispatch_power           6.9369 # average power of dispatch unit per cycle
avg_issue_power            119.1262 # average power of issue unit per cycle
total_power            28351717942.1529 # total power per cycle
avg_total_power_cycle      285.8724 # average total power per cycle
avg_total_power_cycle_nofp_nod2     268.4883 # average total power per cycle
avg_total_power_insn       283.5172 # average total power per insn
avg_total_power_insn_nofp_nod2     266.2764 # average total power per insn
rename_power_cc1       228289061.2046 # total power usage of rename unit_cc1
bpred_power_cc1              0.0000 # total power usage of bpred unit_cc1
window_power_cc1       2004866599.8036 # total power usage of instruction window_cc1
lsq_power_cc1          16263502.7358 # total power usage of lsq_cc1
regfile_power_cc1      2495097490.1376 # total power usage of arch. regfile_cc1
icache_power_cc1       99347671.0419 # total power usage of icache_cc1
dcache_power_cc1       191166157.1661 # total power usage of dcache_cc1
dcache2_power_cc1      8980970.4953 # total power usage of dcache2_cc1
alu_power_cc1          177615430.0660 # total power usage of alu_cc1
resultbus_power_cc1    1412111047.9274 # total power usage of resultbus_cc1
clock_power_cc1        2517433870.7574 # total power usage of clock_cc1
avg_rename_power_cc1         2.3019 # avg power usage of rename unit_cc1
avg_bpred_power_cc1          0.0000 # avg power usage of bpred unit_cc1
avg_window_power_cc1        20.2152 # avg power usage of instruction window_cc1
avg_lsq_power_cc1            0.1640 # avg power usage of lsq_cc1
avg_regfile_power_cc1       25.1582 # avg power usage of arch. regfile_cc1
avg_icache_power_cc1         1.0017 # avg power usage of icache_cc1
avg_dcache_power_cc1         1.9275 # avg power usage of dcache_cc1
avg_dcache2_power_cc1        0.0906 # avg power usage of dcache2_cc1
avg_alu_power_cc1            1.7909 # avg power usage of alu_cc1
avg_resultbus_power_cc1      14.2384 # avg power usage of resultbus_cc1
avg_clock_power_cc1         25.3835 # avg power usage of clock_cc1
fetch_stage_power_cc1  99347671.0419 # total power usage of fetch stage_cc1
dispatch_stage_power_cc1 228289061.2046 # total power usage of dispatch stage_cc1
issue_stage_power_cc1  3811003708.1943 # total power usage of issue stage_cc1
avg_fetch_power_cc1          1.0017 # average power of fetch unit per cycle_cc1
avg_dispatch_power_cc1       2.3019 # average power of dispatch unit per cycle_cc1
avg_issue_power_cc1         38.4266 # average power of issue unit per cycle_cc1
total_power_cycle_cc1  9151171801.3358 # total power per cycle_cc1
avg_total_power_cycle_cc1      92.2719 # average total power per cycle_cc1
avg_total_power_insn_cc1      91.5117 # average total power per insn_cc1
rename_power_cc2       21677729.2256 # total power usage of rename unit_cc2
bpred_power_cc2              0.0000 # total power usage of bpred unit_cc2
window_power_cc2       253241124.8592 # total power usage of instruction window_cc2
lsq_power_cc2          11314177.9862 # total power usage of lsq_cc2
regfile_power_cc2      817454188.0721 # total power usage of arch. regfile_cc2
icache_power_cc2       99347671.0419 # total power usage of icache_cc2
dcache_power_cc2       146723569.2523 # total power usage of dcache_cc2
dcache2_power_cc2      5167671.1411 # total power usage of dcache2_cc2
alu_power_cc2          116736877.5668 # total power usage of alu_cc2
resultbus_power_cc2    126620445.6060 # total power usage of resultbus_cc2
clock_power_cc2        605728079.4661 # total power usage of clock_cc2
avg_rename_power_cc2         0.2186 # avg power usage of rename unit_cc2
avg_bpred_power_cc2          0.0000 # avg power usage of bpred unit_cc2
avg_window_power_cc2         2.5534 # avg power usage of instruction window_cc2
avg_lsq_power_cc2            0.1141 # avg power usage of instruction lsq_cc2
avg_regfile_power_cc2        8.2424 # avg power usage of arch. regfile_cc2
avg_icache_power_cc2         1.0017 # avg power usage of icache_cc2
avg_dcache_power_cc2         1.4794 # avg power usage of dcache_cc2
avg_dcache2_power_cc2        0.0521 # avg power usage of dcache2_cc2
avg_alu_power_cc2            1.1771 # avg power usage of alu_cc2
avg_resultbus_power_cc2       1.2767 # avg power usage of resultbus_cc2
avg_clock_power_cc2          6.1076 # avg power usage of clock_cc2
fetch_stage_power_cc2  99347671.0419 # total power usage of fetch stage_cc2
dispatch_stage_power_cc2 21677729.2256 # total power usage of dispatch stage_cc2
issue_stage_power_cc2  659803866.4116 # total power usage of issue stage_cc2
avg_fetch_power_cc2          1.0017 # average power of fetch unit per cycle_cc2
avg_dispatch_power_cc2       0.2186 # average power of dispatch unit per cycle_cc2
avg_issue_power_cc2          6.6528 # average power of issue unit per cycle_cc2
total_power_cycle_cc2  2204011534.2172 # total power per cycle_cc2
avg_total_power_cycle_cc2      22.2232 # average total power per cycle_cc2
avg_total_power_insn_cc2      22.0401 # average total power per insn_cc2
rename_power_cc3       67646058.1217 # total power usage of rename unit_cc3
bpred_power_cc3        33090006.6163 # total power usage of bpred unit_cc3
window_power_cc3       548564281.9113 # total power usage of instruction window_cc3
lsq_power_cc3          19219208.9033 # total power usage of lsq_cc3
regfile_power_cc3      1287855149.2256 # total power usage of arch. regfile_cc3
icache_power_cc3       119489698.1106 # total power usage of icache_cc3
dcache_power_cc3       192594291.3691 # total power usage of dcache_cc3
dcache2_power_cc3      35052119.1879 # total power usage of dcache2_cc3
alu_power_cc3          286826608.1121 # total power usage of alu_cc3
resultbus_power_cc3    346550271.4667 # total power usage of resultbus_cc3
clock_power_cc3        1101712445.1817 # total power usage of clock_cc3
avg_rename_power_cc3         0.6821 # avg power usage of rename unit_cc3
avg_bpred_power_cc3          0.3336 # avg power usage of bpred unit_cc3
avg_window_power_cc3         5.5312 # avg power usage of instruction window_cc3
avg_lsq_power_cc3            0.1938 # avg power usage of instruction lsq_cc3
avg_regfile_power_cc3       12.9855 # avg power usage of arch. regfile_cc3
avg_icache_power_cc3         1.2048 # avg power usage of icache_cc3
avg_dcache_power_cc3         1.9419 # avg power usage of dcache_cc3
avg_dcache2_power_cc3        0.3534 # avg power usage of dcache2_cc3
avg_alu_power_cc3            2.8921 # avg power usage of alu_cc3
avg_resultbus_power_cc3       3.4943 # avg power usage of resultbus_cc3
avg_clock_power_cc3         11.1086 # avg power usage of clock_cc3
fetch_stage_power_cc3  152579704.7269 # total power usage of fetch stage_cc3
dispatch_stage_power_cc3 67646058.1217 # total power usage of dispatch stage_cc3
issue_stage_power_cc3  1428806780.9505 # total power usage of issue stage_cc3
avg_fetch_power_cc3          1.5385 # average power of fetch unit per cycle_cc3
avg_dispatch_power_cc3       0.6821 # average power of dispatch unit per cycle_cc3
avg_issue_power_cc3         14.4068 # average power of issue unit per cycle_cc3
total_power_cycle_cc3  4038600138.2064 # total power per cycle_cc3
avg_total_power_cycle_cc3      40.7215 # average total power per cycle_cc3
avg_total_power_insn_cc3      40.3860 # average total power per insn_cc3
total_rename_access       100000000 # total number accesses of rename unit
total_bpred_access                0 # total number accesses of bpred unit
total_window_access       397331934 # total number accesses of instruction window
total_lsq_access           46749040 # total number accesses of load/store queue
total_regfile_access      146860580 # total number accesses of arch. regfile
total_icache_access       369806219 # total number accesses of icache
total_dcache_access        45574124 # total number accesses of dcache
total_dcache2_access        3330783 # total number accesses of dcache2
total_alu_access           99999297 # total number accesses of alu
total_resultbus_access    115674352 # total number accesses of resultbus
avg_rename_access            1.0083 # avg number accesses of rename unit
avg_bpred_access             0.0000 # avg number accesses of bpred unit
avg_window_access            4.0063 # avg number accesses of instruction window
avg_lsq_access               0.4714 # avg number accesses of lsq
avg_regfile_access           1.4808 # avg number accesses of arch. regfile
avg_icache_access            3.7288 # avg number accesses of icache
avg_dcache_access            0.4595 # avg number accesses of dcache
avg_dcache2_access           0.0336 # avg number accesses of dcache2
avg_alu_access               1.0083 # avg number accesses of alu
avg_resultbus_access         1.1664 # avg number accesses of resultbus
max_rename_access                16 # max number accesses of rename unit
max_bpred_access                  0 # max number accesses of bpred unit
max_window_access                31 # max number accesses of instruction window
max_lsq_access                    6 # max number accesses of load/store queue
max_regfile_access               18 # max number accesses of arch. regfile
max_icache_access                32 # max number accesses of icache
max_dcache_access                 4 # max number accesses of dcache
max_dcache2_access                7 # max number accesses of dcache2
max_alu_access                    6 # max number accesses of alu
max_resultbus_access              8 # max number accesses of resultbus
max_cycle_power_cc1        222.7273 # maximum cycle power usage of cc1
max_cycle_power_cc2        123.1137 # maximum cycle power usage of cc2
max_cycle_power_cc3        134.7058 # maximum cycle power usage of cc3
sim_invalid_addrs                 0 # total non-speculative bogus addresses seen (debug var)
ld_text_base           0x0120000000 # program text (code) segment base
ld_text_size                 876544 # program text (code) size in bytes
ld_data_base           0x0140000000 # program initialized data segment base
ld_data_size                 131616 # program init'ed `.data' and uninit'ed `.bss' size in bytes
ld_stack_base          0x011ff9b000 # program stack segment base (highest address in stack)
ld_stack_size                 16384 # program initial stack size
ld_prog_entry          0x01200b4d58 # program entry point (initial PC)
ld_environ_base        0x011ff96b80 # program environment base address address
ld_target_big_endian              0 # target executable endian-ness, non-zero if big endian
mem.page_count                 4996 # total number of pages allocated
mem.page_mem                 39968k # total size of memory pages allocated
mem.ptab_misses              173706 # total first level page table misses
mem.ptab_accesses        1429916690 # total page table accesses
mem.ptab_miss_rate           0.0001 # first level page table miss rate

