sim-outorder: SimpleScalar/Alpha Tool Set version 3.0 of August, 2003.
Copyright (c) 1994-2003 by Todd M. Austin, Ph.D. and SimpleScalar, LLC.
All Rights Reserved. This version of SimpleScalar is licensed for academic
non-commercial use.  No portion of this work may be used by any commercial
entity, or for any commercial purpose, without the prior written permission
of SimpleScalar, LLC (info@simplescalar.com).


Processor Parameters:
Issue Width: 32
Window Size: 16
Number of Virtual Registers: 32
Number of Physical Registers: 16
Datapath Width: 64
Total Power Consumption: 287.872
Branch Predictor Power Consumption: 3.33649  (1.17%)
 branch target buffer power (W): 2.49493
 local predict power (W): 0.574771
 global predict power (W): 0.0996078
 chooser power (W): 0.0702439
 RAS power (W): 0.0969383
Rename Logic Power Consumption: 6.93687  (2.43%)
 Instruction Decode Power (W): 0.127932
 RAT decode_power (W): 0.908115
 RAT wordline_power (W): 0.455623
 RAT bitline_power (W): 4.54351
 DCL Comparators (W): 0.901689
Instruction Window Power Consumption: 52.3166  (18.3%)
 tagdrive (W): 1.70315
 tagmatch (W): 0.455769
 Selection Logic (W): 0.107374
 decode_power (W): 0.426003
 wordline_power (W): 4.02565
 bitline_power (W): 45.5986
Load/Store Queue Power Consumption: 0.963281  (0.337%)
 tagdrive (W): 0.457232
 tagmatch (W): 0.100875
 decode_power (W): 0.00799577
 wordline_power (W): 0.0150119
 bitline_power (W): 0.382166
Arch. Register File Power Consumption: 75.6732  (26.5%)
 decode_power (W): 0.908115
 wordline_power (W): 4.02565
 bitline_power (W): 70.7394
Result Bus Power Consumption: 37.3633  (13.1%)
Total Clock Power: 77.7669  (27.2%)
Int ALU Power: 4.66013  (1.63%)
FP ALU Power: 14.281  (5%)
Instruction Cache Power Consumption: 2.76773  (0.968%)
 decode_power (W): 0.151353
 wordline_power (W): 0.180479
 bitline_power (W): 1.42251
 senseamp_power (W): 0.768
 tagarray_power (W): 0.245382
Itlb_power (W): 0.264936 (0.0927%)
Data Cache Power Consumption: 5.53546  (1.94%)
 decode_power (W): 0.302705
 wordline_power (W): 0.360958
 bitline_power (W): 2.84503
 senseamp_power (W): 1.536
 tagarray_power (W): 0.490764
Dtlb_power (W): 0.903441 (0.316%)
Level 2 Cache Power Consumption: 3.10298 (1.09%)
 decode_power (W): 0.19487
 wordline_power (W): 0.0430878
 bitline_power (W): 1.77274
 senseamp_power (W): 0.192
 tagarray_power (W): 0.900275
sim: loading EIO file: ../benchmarks/256.bzip2.source-ref.eio.gz
sim: command line: ./sim-outorder -config ../configs/current.config ../benchmarks/256.bzip2.source-ref.eio.gz 

sim: simulation started @ Mon Nov 23 20:58:45 2015, options follow:

sim-outorder: This simulator implements a very detailed out-of-order issue
superscalar processor with a two-level memory system and speculative
execution support.  This simulator is a performance simulator, tracking the
latency of all pipeline operations.

# -config                     # load configuration from a file
# -dumpconfig                 # dump configuration to a file
# -h                    false # print help message    
# -v                    false # verbose operation     
# -d                    false # enable debug message  
# -i                    false # start in Dlite debugger
-seed                       1 # random number generator seed (0 for timer seed)
# -q                    false # initialize and terminate immediately
# -chkpt               <null> # restore EIO trace execution from <fname>
# -redir:sim     ../results/13_12_ugh/256.bzip2.source-ref.eio.gz.out # redirect simulator output to file (non-interactive only)
# -redir:prog       /dev/null # redirect simulated program output to file
-nice                       0 # simulator scheduling priority
-freq            600000000.0000 # frequency             
-max:inst           100000000 # maximum number of inst's to execute
-fastfwd                    0 # number of insts skipped before timing starts
# -ptrace              <null> # generate pipetrace, i.e., <fname|stdout|stderr> <range>
-fetch:ifqsize             32 # instruction fetch queue size (in insts)
-fetch:mplat                3 # extra branch mis-prediction latency
-fetch:speed                1 # speed of front-end of machine relative to execution core
-bpred                perfect # branch predictor type {nottaken|taken|perfect|bimod|2lev|comb}
-bpred:bimod     2048 # bimodal predictor config (<table size>)
-bpred:2lev      1 16384 4 0 # 2-level predictor config (<l1size> <l2size> <hist_size> <xor>)
-bpred:comb      1024 # combining predictor config (<meta_table_size>)
-bpred:ras                  8 # return address stack size (0 for no return stack)
-bpred:btb       512 4 # BTB config (<num_sets> <associativity>)
# -bpred:spec_update       <null> # speculative predictors update in {ID|WB} (default non-spec)
-decode:width              32 # instruction decode B/W (insts/cycle)
-issue:width               32 # instruction issue B/W (insts/cycle)
-issue:inorder          false # run pipeline with in-order issue
-issue:wrongpath         true # issue instructions down wrong execution paths
-commit:width               4 # instruction commit B/W (insts/cycle)
-ruu:size                  16 # register update unit (RUU) size
-lsq:size                   8 # load/store queue (LSQ) size
-cache:dl1       dl1:32:64:8:f # l1 data cache config, i.e., {<config>|none}
-cache:dl1lat               1 # l1 data cache hit latency (in cycles)
-cache:dl2       dl2:256:64:8:f # l2 data cache config, i.e., {<config>|none}
-cache:dl2lat               2 # l2 data cache hit latency (in cycles)
-cache:il1       il1:32:64:8:f # l1 inst cache config, i.e., {<config>|dl1|dl2|none}
-cache:il1lat               1 # l1 instruction cache hit latency (in cycles)
-cache:il2                dl2 # l2 instruction cache config, i.e., {<config>|dl2|none}
-cache:il2lat               2 # l2 instruction cache hit latency (in cycles)
-cache:flush            false # flush caches on system calls
-cache:icompress        false # convert 64-bit inst addresses to 32-bit inst equivalents
-mem:lat         103 1 # memory access latency (<first_chunk> <inter_chunk>)
-mem:width                  8 # memory access bus width (in bytes)
-tlb:itlb        itlb:16:4096:4:l # instruction TLB config, i.e., {<config>|none}
-tlb:dtlb        dtlb:32:4096:4:l # data TLB config, i.e., {<config>|none}
-tlb:lat                   30 # inst/data TLB miss latency (in cycles)
-res:ialu                   4 # total number of integer ALU's available
-res:imult                  1 # total number of integer multiplier/dividers available
-res:memport                2 # total number of memory system ports available (to CPU)
-res:fpalu                  4 # total number of floating point ALU's available
-res:fpmult                 1 # total number of floating point multiplier/dividers available
# -pcstat              <null> # profile stat(s) against text addr's (mult uses ok)
-bugcompat              false # operate in backward-compatible bugs mode (for testing only)

  Pipetrace range arguments are formatted as follows:

    {{@|#}<start>}:{{@|#|+}<end>}

  Both ends of the range are optional, if neither are specified, the entire
  execution is traced.  Ranges that start with a `@' designate an address
  range to be traced, those that start with an `#' designate a cycle count
  range.  All other range values represent an instruction count range.  The
  second argument, if specified with a `+', indicates a value relative
  to the first argument, e.g., 1000:+100 == 1000:1100.  Program symbols may
  be used in all contexts.

    Examples:   -ptrace FOO.trc #0:#1000
                -ptrace BAR.trc @2000:
                -ptrace BLAH.trc :1500
                -ptrace UXXE.trc :
                -ptrace FOOBAR.trc @main:+278

  Branch predictor configuration examples for 2-level predictor:
    Configurations:   N, M, W, X
      N   # entries in first level (# of shift register(s))
      W   width of shift register(s)
      M   # entries in 2nd level (# of counters, or other FSM)
      X   (yes-1/no-0) xor history and address for 2nd level index
    Sample predictors:
      GAg     : 1, W, 2^W, 0
      GAp     : 1, W, M (M > 2^W), 0
      PAg     : N, W, 2^W, 0
      PAp     : N, W, M (M == 2^(N+W)), 0
      gshare  : 1, W, 2^W, 1
  Predictor `comb' combines a bimodal and a 2-level predictor.

  The cache config parameter <config> has the following format:

    <name>:<nsets>:<bsize>:<assoc>:<repl>

    <name>   - name of the cache being defined
    <nsets>  - number of sets in the cache
    <bsize>  - block size of the cache
    <assoc>  - associativity of the cache
    <repl>   - block replacement strategy, 'l'-LRU, 'f'-FIFO, 'r'-random

    Examples:   -cache:dl1 dl1:4096:32:1:l
                -dtlb dtlb:128:4096:32:r

  Cache levels can be unified by pointing a level of the instruction cache
  hierarchy at the data cache hiearchy using the "dl1" and "dl2" cache
  configuration arguments.  Most sensible combinations are supported, e.g.,

    A unified l2 cache (il2 is pointed at dl2):
      -cache:il1 il1:128:64:1:l -cache:il2 dl2
      -cache:dl1 dl1:256:32:1:l -cache:dl2 ul2:1024:64:2:l

    Or, a fully unified cache hierarchy (il1 pointed at dl1):
      -cache:il1 dl1
      -cache:dl1 ul1:256:32:1:l -cache:dl2 ul2:1024:64:2:l



sim: ** starting performance simulation **

sim: ** simulation statistics **
sim_num_insn              100000000 # total number of instructions committed
sim_num_refs               55329424 # total number of loads and stores committed
sim_num_loads              37434147 # total number of loads committed
sim_num_stores         17895277.0000 # total number of stores committed
sim_num_branches            6957294 # total number of branches committed
sim_elapsed_time                108 # total simulation time in seconds
sim_inst_rate           925925.9259 # simulation speed (in insts/sec)
sim_total_insn            100000000 # total number of instructions executed
sim_total_refs             55329424 # total number of loads and stores executed
sim_total_loads            37434147 # total number of loads executed
sim_total_stores       17895277.0000 # total number of stores executed
sim_total_branches          6957294 # total number of branches executed
sim_cycle                  46749487 # total simulation time in cycles
sim_IPC                      2.1391 # instructions per cycle
sim_CPI                      0.4675 # cycles per instruction
sim_exec_BW                  2.1391 # total instructions (mis-spec + committed) per cycle
sim_IPB                     14.3734 # instruction per branch
IFQ_count                1494210213 # cumulative IFQ occupancy
IFQ_fcount                 46693159 # cumulative IFQ full count
ifq_occupancy               31.9621 # avg IFQ occupancy (insn's)
ifq_rate                     2.1391 # avg IFQ dispatch rate (insn/cycle)
ifq_latency                 14.9421 # avg IFQ occupant latency (cycle's)
ifq_full                     0.9988 # fraction of time (cycle's) IFQ was full
RUU_count                 591058481 # cumulative RUU occupancy
RUU_fcount                 15177705 # cumulative RUU full count
ruu_occupancy               12.6431 # avg RUU occupancy (insn's)
ruu_rate                     2.1391 # avg RUU dispatch rate (insn/cycle)
ruu_latency                  5.9106 # avg RUU occupant latency (cycle's)
ruu_full                     0.3247 # fraction of time (cycle's) RUU was full
LSQ_count                 326558238 # cumulative LSQ occupancy
LSQ_fcount                 30164071 # cumulative LSQ full count
lsq_occupancy                6.9853 # avg LSQ occupancy (insn's)
lsq_rate                     2.1391 # avg LSQ dispatch rate (insn/cycle)
lsq_latency                  3.2656 # avg LSQ occupant latency (cycle's)
lsq_full                     0.6452 # fraction of time (cycle's) LSQ was full
sim_slip                 1072946035 # total number of slip cycles
avg_sim_slip                10.7295 # the average slip between issue and retirement
il1.accesses              259208894 # total number of accesses
il1.hits                  259208380 # total number of hits
il1.misses                      514 # total number of misses
il1.replacements                258 # total number of replacements
il1.writebacks                    0 # total number of writebacks
il1.invalidations                 0 # total number of invalidations
il1.miss_rate                0.0000 # miss rate (i.e., misses/ref)
il1.repl_rate                0.0000 # replacement rate (i.e., repls/ref)
il1.wb_rate                  0.0000 # writeback rate (i.e., wrbks/ref)
il1.inv_rate                 0.0000 # invalidation rate (i.e., invs/ref)
dl1.accesses               54787292 # total number of accesses
dl1.hits                   53788551 # total number of hits
dl1.misses                   998741 # total number of misses
dl1.replacements             998485 # total number of replacements
dl1.writebacks               959789 # total number of writebacks
dl1.invalidations                 0 # total number of invalidations
dl1.miss_rate                0.0182 # miss rate (i.e., misses/ref)
dl1.repl_rate                0.0182 # replacement rate (i.e., repls/ref)
dl1.wb_rate                  0.0175 # writeback rate (i.e., wrbks/ref)
dl1.inv_rate                 0.0000 # invalidation rate (i.e., invs/ref)
dl2.accesses                1959044 # total number of accesses
dl2.hits                     971633 # total number of hits
dl2.misses                   987411 # total number of misses
dl2.replacements             985363 # total number of replacements
dl2.writebacks               955427 # total number of writebacks
dl2.invalidations                 0 # total number of invalidations
dl2.miss_rate                0.5040 # miss rate (i.e., misses/ref)
dl2.repl_rate                0.5030 # replacement rate (i.e., repls/ref)
dl2.wb_rate                  0.4877 # writeback rate (i.e., wrbks/ref)
dl2.inv_rate                 0.0000 # invalidation rate (i.e., invs/ref)
itlb.accesses             259208894 # total number of accesses
itlb.hits                 259208868 # total number of hits
itlb.misses                      26 # total number of misses
itlb.replacements                 0 # total number of replacements
itlb.writebacks                   0 # total number of writebacks
itlb.invalidations                0 # total number of invalidations
itlb.miss_rate               0.0000 # miss rate (i.e., misses/ref)
itlb.repl_rate               0.0000 # replacement rate (i.e., repls/ref)
itlb.wb_rate                 0.0000 # writeback rate (i.e., wrbks/ref)
itlb.inv_rate                0.0000 # invalidation rate (i.e., invs/ref)
dtlb.accesses              55329421 # total number of accesses
dtlb.hits                  55314135 # total number of hits
dtlb.misses                   15286 # total number of misses
dtlb.replacements             15158 # total number of replacements
dtlb.writebacks                   0 # total number of writebacks
dtlb.invalidations                0 # total number of invalidations
dtlb.miss_rate               0.0003 # miss rate (i.e., misses/ref)
dtlb.repl_rate               0.0003 # replacement rate (i.e., repls/ref)
dtlb.wb_rate                 0.0000 # writeback rate (i.e., wrbks/ref)
dtlb.inv_rate                0.0000 # invalidation rate (i.e., invs/ref)
rename_power           324295270.6343 # total power usage of rename unit
bpred_power            155979126.4997 # total power usage of bpred unit
window_power           2445772752.9617 # total power usage of instruction window
lsq_power              45032898.4227 # total power usage of load/store queue
regfile_power          3537683258.3746 # total power usage of arch. regfile
icache_power           141775495.2673 # total power usage of icache
dcache_power           301015181.1499 # total power usage of dcache
dcache2_power          145062572.1713 # total power usage of dcache2
alu_power              885490234.2810 # total power usage of alu
falu_power             667631525.5654 # total power usage of falu
resultbus_power        1746716059.6952 # total power usage of resultbus
clock_power            3635563145.0558 # total power usage of clock
avg_rename_power             6.9369 # avg power usage of rename unit
avg_bpred_power              3.3365 # avg power usage of bpred unit
avg_window_power            52.3166 # avg power usage of instruction window
avg_lsq_power                0.9633 # avg power usage of lsq
avg_regfile_power           75.6732 # avg power usage of arch. regfile
avg_icache_power             3.0327 # avg power usage of icache
avg_dcache_power             6.4389 # avg power usage of dcache
avg_dcache2_power            3.1030 # avg power usage of dcache2
avg_alu_power               18.9412 # avg power usage of alu
avg_falu_power              14.2810 # avg power usage of falu
avg_resultbus_power         37.3633 # avg power usage of resultbus
avg_clock_power             77.7669 # avg power usage of clock
fetch_stage_power      297754621.7670 # total power usage of fetch stage
dispatch_stage_power   324295270.6343 # total power usage of dispatch stage
issue_stage_power      5569089698.6818 # total power usage of issue stage
avg_fetch_power              6.3692 # average power of fetch unit per cycle
avg_dispatch_power           6.9369 # average power of dispatch unit per cycle
avg_issue_power            119.1262 # average power of issue unit per cycle
total_power            13364385994.5135 # total power per cycle
avg_total_power_cycle      285.8724 # average total power per cycle
avg_total_power_cycle_nofp_nod2     268.4883 # average total power per cycle
avg_total_power_insn       133.6439 # average total power per insn
avg_total_power_insn_nofp_nod2     125.5169 # average total power per insn
rename_power_cc1       240429546.8496 # total power usage of rename unit_cc1
bpred_power_cc1              0.0000 # total power usage of bpred unit_cc1
window_power_cc1       2039373925.0168 # total power usage of instruction window_cc1
lsq_power_cc1          18916391.1072 # total power usage of lsq_cc1
regfile_power_cc1      2377921044.3805 # total power usage of arch. regfile_cc1
icache_power_cc1       105110054.4743 # total power usage of icache_cc1
dcache_power_cc1       213234408.1787 # total power usage of dcache_cc1
dcache2_power_cc1      3094086.7437 # total power usage of dcache2_cc1
alu_power_cc1          173385012.6567 # total power usage of alu_cc1
resultbus_power_cc1    1386967553.2432 # total power usage of resultbus_cc1
clock_power_cc1        2322357068.0504 # total power usage of clock_cc1
avg_rename_power_cc1         5.1429 # avg power usage of rename unit_cc1
avg_bpred_power_cc1          0.0000 # avg power usage of bpred unit_cc1
avg_window_power_cc1        43.6235 # avg power usage of instruction window_cc1
avg_lsq_power_cc1            0.4046 # avg power usage of lsq_cc1
avg_regfile_power_cc1       50.8652 # avg power usage of arch. regfile_cc1
avg_icache_power_cc1         2.2484 # avg power usage of icache_cc1
avg_dcache_power_cc1         4.5612 # avg power usage of dcache_cc1
avg_dcache2_power_cc1        0.0662 # avg power usage of dcache2_cc1
avg_alu_power_cc1            3.7088 # avg power usage of alu_cc1
avg_resultbus_power_cc1      29.6681 # avg power usage of resultbus_cc1
avg_clock_power_cc1         49.6766 # avg power usage of clock_cc1
fetch_stage_power_cc1  105110054.4743 # total power usage of fetch stage_cc1
dispatch_stage_power_cc1 240429546.8496 # total power usage of dispatch stage_cc1
issue_stage_power_cc1  3834971376.9462 # total power usage of issue stage_cc1
avg_fetch_power_cc1          2.2484 # average power of fetch unit per cycle_cc1
avg_dispatch_power_cc1       5.1429 # average power of dispatch unit per cycle_cc1
avg_issue_power_cc1         82.0324 # average power of issue unit per cycle_cc1
total_power_cycle_cc1  8880789090.7010 # total power per cycle_cc1
avg_total_power_cycle_cc1     189.9655 # average total power per cycle_cc1
avg_total_power_insn_cc1      88.8079 # average total power per insn_cc1
rename_power_cc2       21677729.2257 # total power usage of rename unit_cc2
bpred_power_cc2              0.0000 # total power usage of bpred unit_cc2
window_power_cc2       272973498.8035 # total power usage of instruction window_cc2
lsq_power_cc2          13963283.1343 # total power usage of lsq_cc2
regfile_power_cc2      948497239.7592 # total power usage of arch. regfile_cc2
icache_power_cc2       105110054.4743 # total power usage of icache_cc2
dcache_power_cc2       176384894.0472 # total power usage of dcache_cc2
dcache2_power_cc2      3039434.0138 # total power usage of dcache2_cc2
alu_power_cc2          115395033.3627 # total power usage of alu_cc2
resultbus_power_cc2    142823681.0825 # total power usage of resultbus_cc2
clock_power_cc2        656188770.6654 # total power usage of clock_cc2
avg_rename_power_cc2         0.4637 # avg power usage of rename unit_cc2
avg_bpred_power_cc2          0.0000 # avg power usage of bpred unit_cc2
avg_window_power_cc2         5.8391 # avg power usage of instruction window_cc2
avg_lsq_power_cc2            0.2987 # avg power usage of instruction lsq_cc2
avg_regfile_power_cc2       20.2889 # avg power usage of arch. regfile_cc2
avg_icache_power_cc2         2.2484 # avg power usage of icache_cc2
avg_dcache_power_cc2         3.7730 # avg power usage of dcache_cc2
avg_dcache2_power_cc2        0.0650 # avg power usage of dcache2_cc2
avg_alu_power_cc2            2.4684 # avg power usage of alu_cc2
avg_resultbus_power_cc2       3.0551 # avg power usage of resultbus_cc2
avg_clock_power_cc2         14.0363 # avg power usage of clock_cc2
fetch_stage_power_cc2  105110054.4743 # total power usage of fetch stage_cc2
dispatch_stage_power_cc2 21677729.2257 # total power usage of dispatch stage_cc2
issue_stage_power_cc2  724579824.4440 # total power usage of issue stage_cc2
avg_fetch_power_cc2          2.2484 # average power of fetch unit per cycle_cc2
avg_dispatch_power_cc2       0.4637 # average power of dispatch unit per cycle_cc2
avg_issue_power_cc2         15.4992 # average power of issue unit per cycle_cc2
total_power_cycle_cc2  2456053618.5686 # total power per cycle_cc2
avg_total_power_cycle_cc2      52.5365 # average total power per cycle_cc2
avg_total_power_insn_cc2      24.5605 # average total power per insn_cc2
rename_power_cc3       30064301.5800 # total power usage of rename unit_cc3
bpred_power_cc3        15597912.6480 # total power usage of bpred unit_cc3
window_power_cc3       290761294.8811 # total power usage of instruction window_cc3
lsq_power_cc3          16574364.2470 # total power usage of lsq_cc3
regfile_power_cc3      1033299472.5830 # total power usage of arch. regfile_cc3
icache_power_cc3       108776598.5711 # total power usage of icache_cc3
dcache_power_cc3       186973187.4075 # total power usage of dcache_cc3
dcache2_power_cc3      17236886.0964 # total power usage of dcache2_cc3
alu_power_cc3          186605555.2517 # total power usage of alu_cc3
resultbus_power_cc3    169552081.5219 # total power usage of resultbus_cc3
clock_power_cc3        767346136.9887 # total power usage of clock_cc3
avg_rename_power_cc3         0.6431 # avg power usage of rename unit_cc3
avg_bpred_power_cc3          0.3336 # avg power usage of bpred unit_cc3
avg_window_power_cc3         6.2196 # avg power usage of instruction window_cc3
avg_lsq_power_cc3            0.3545 # avg power usage of instruction lsq_cc3
avg_regfile_power_cc3       22.1029 # avg power usage of arch. regfile_cc3
avg_icache_power_cc3         2.3268 # avg power usage of icache_cc3
avg_dcache_power_cc3         3.9995 # avg power usage of dcache_cc3
avg_dcache2_power_cc3        0.3687 # avg power usage of dcache2_cc3
avg_alu_power_cc3            3.9916 # avg power usage of alu_cc3
avg_resultbus_power_cc3       3.6268 # avg power usage of resultbus_cc3
avg_clock_power_cc3         16.4140 # avg power usage of clock_cc3
fetch_stage_power_cc3  124374511.2191 # total power usage of fetch stage_cc3
dispatch_stage_power_cc3 30064301.5800 # total power usage of dispatch stage_cc3
issue_stage_power_cc3  867703369.4057 # total power usage of issue stage_cc3
avg_fetch_power_cc3          2.6604 # average power of fetch unit per cycle_cc3
avg_dispatch_power_cc3       0.6431 # average power of dispatch unit per cycle_cc3
avg_issue_power_cc3         18.5607 # average power of issue unit per cycle_cc3
total_power_cycle_cc3  2822787791.7764 # total power per cycle_cc3
avg_total_power_cycle_cc3      60.3812 # average total power per cycle_cc3
avg_total_power_insn_cc3      28.2279 # average total power per insn_cc3
total_rename_access       100000000 # total number accesses of rename unit
total_bpred_access                0 # total number accesses of bpred unit
total_window_access       429212277 # total number accesses of instruction window
total_lsq_access           55871552 # total number accesses of load/store queue
total_regfile_access      171344088 # total number accesses of arch. regfile
total_icache_access       259208894 # total number accesses of icache
total_dcache_access        54787292 # total number accesses of dcache
total_dcache2_access        1959044 # total number accesses of dcache2
total_alu_access           99048727 # total number accesses of alu
total_resultbus_access    130476849 # total number accesses of resultbus
avg_rename_access            2.1391 # avg number accesses of rename unit
avg_bpred_access             0.0000 # avg number accesses of bpred unit
avg_window_access            9.1811 # avg number accesses of instruction window
avg_lsq_access               1.1951 # avg number accesses of lsq
avg_regfile_access           3.6652 # avg number accesses of arch. regfile
avg_icache_access            5.5446 # avg number accesses of icache
avg_dcache_access            1.1719 # avg number accesses of dcache
avg_dcache2_access           0.0419 # avg number accesses of dcache2
avg_alu_access               2.1187 # avg number accesses of alu
avg_resultbus_access         2.7910 # avg number accesses of resultbus
max_rename_access                16 # max number accesses of rename unit
max_bpred_access                  0 # max number accesses of bpred unit
max_window_access                30 # max number accesses of instruction window
max_lsq_access                    5 # max number accesses of load/store queue
max_regfile_access               17 # max number accesses of arch. regfile
max_icache_access                32 # max number accesses of icache
max_dcache_access                 4 # max number accesses of dcache
max_dcache2_access                4 # max number accesses of dcache2
max_alu_access                    5 # max number accesses of alu
max_resultbus_access              8 # max number accesses of resultbus
max_cycle_power_cc1        240.8817 # maximum cycle power usage of cc1
max_cycle_power_cc2        130.1668 # maximum cycle power usage of cc2
max_cycle_power_cc3        135.0126 # maximum cycle power usage of cc3
sim_invalid_addrs                 0 # total non-speculative bogus addresses seen (debug var)
ld_text_base           0x0120000000 # program text (code) segment base
ld_text_size                 196608 # program text (code) size in bytes
ld_data_base           0x0140000000 # program initialized data segment base
ld_data_size                 146544 # program init'ed `.data' and uninit'ed `.bss' size in bytes
ld_stack_base          0x011ff9b000 # program stack segment base (highest address in stack)
ld_stack_size                 16384 # program initial stack size
ld_prog_entry          0x012000b53c # program entry point (initial PC)
ld_environ_base        0x011ff96e90 # program environment base address address
ld_target_big_endian              0 # target executable endian-ness, non-zero if big endian
mem.page_count                23556 # total number of pages allocated
mem.page_mem                188448k # total size of memory pages allocated
mem.ptab_misses             2654151 # total first level page table misses
mem.ptab_accesses        1513560254 # total page table accesses
mem.ptab_miss_rate           0.0018 # first level page table miss rate

