sim-outorder: SimpleScalar/Alpha Tool Set version 3.0 of August, 2003.
Copyright (c) 1994-2003 by Todd M. Austin, Ph.D. and SimpleScalar, LLC.
All Rights Reserved. This version of SimpleScalar is licensed for academic
non-commercial use.  No portion of this work may be used by any commercial
entity, or for any commercial purpose, without the prior written permission
of SimpleScalar, LLC (info@simplescalar.com).


Processor Parameters:
Issue Width: 32
Window Size: 16
Number of Virtual Registers: 32
Number of Physical Registers: 16
Datapath Width: 64
Total Power Consumption: 287.872
Branch Predictor Power Consumption: 3.33649  (1.17%)
 branch target buffer power (W): 2.49493
 local predict power (W): 0.574771
 global predict power (W): 0.0996078
 chooser power (W): 0.0702439
 RAS power (W): 0.0969383
Rename Logic Power Consumption: 6.93687  (2.43%)
 Instruction Decode Power (W): 0.127932
 RAT decode_power (W): 0.908115
 RAT wordline_power (W): 0.455623
 RAT bitline_power (W): 4.54351
 DCL Comparators (W): 0.901689
Instruction Window Power Consumption: 52.3166  (18.3%)
 tagdrive (W): 1.70315
 tagmatch (W): 0.455769
 Selection Logic (W): 0.107374
 decode_power (W): 0.426003
 wordline_power (W): 4.02565
 bitline_power (W): 45.5986
Load/Store Queue Power Consumption: 0.963281  (0.337%)
 tagdrive (W): 0.457232
 tagmatch (W): 0.100875
 decode_power (W): 0.00799577
 wordline_power (W): 0.0150119
 bitline_power (W): 0.382166
Arch. Register File Power Consumption: 75.6732  (26.5%)
 decode_power (W): 0.908115
 wordline_power (W): 4.02565
 bitline_power (W): 70.7394
Result Bus Power Consumption: 37.3633  (13.1%)
Total Clock Power: 77.7669  (27.2%)
Int ALU Power: 4.66013  (1.63%)
FP ALU Power: 14.281  (5%)
Instruction Cache Power Consumption: 2.76773  (0.968%)
 decode_power (W): 0.151353
 wordline_power (W): 0.180479
 bitline_power (W): 1.42251
 senseamp_power (W): 0.768
 tagarray_power (W): 0.245382
Itlb_power (W): 0.264936 (0.0927%)
Data Cache Power Consumption: 5.53546  (1.94%)
 decode_power (W): 0.302705
 wordline_power (W): 0.360958
 bitline_power (W): 2.84503
 senseamp_power (W): 1.536
 tagarray_power (W): 0.490764
Dtlb_power (W): 0.903441 (0.316%)
Level 2 Cache Power Consumption: 3.10298 (1.09%)
 decode_power (W): 0.19487
 wordline_power (W): 0.0430878
 bitline_power (W): 1.77274
 senseamp_power (W): 0.192
 tagarray_power (W): 0.900275
sim: loading EIO file: ../benchmarks/256.bzip2.graphic-ref.eio.gz
sim: command line: ./sim-outorder -config ../configs/current.config ../benchmarks/256.bzip2.graphic-ref.eio.gz 

sim: simulation started @ Mon Nov 23 20:58:45 2015, options follow:

sim-outorder: This simulator implements a very detailed out-of-order issue
superscalar processor with a two-level memory system and speculative
execution support.  This simulator is a performance simulator, tracking the
latency of all pipeline operations.

# -config                     # load configuration from a file
# -dumpconfig                 # dump configuration to a file
# -h                    false # print help message    
# -v                    false # verbose operation     
# -d                    false # enable debug message  
# -i                    false # start in Dlite debugger
-seed                       1 # random number generator seed (0 for timer seed)
# -q                    false # initialize and terminate immediately
# -chkpt               <null> # restore EIO trace execution from <fname>
# -redir:sim     ../results/13_12_ugh/256.bzip2.graphic-ref.eio.gz.out # redirect simulator output to file (non-interactive only)
# -redir:prog       /dev/null # redirect simulated program output to file
-nice                       0 # simulator scheduling priority
-freq            600000000.0000 # frequency             
-max:inst           100000000 # maximum number of inst's to execute
-fastfwd                    0 # number of insts skipped before timing starts
# -ptrace              <null> # generate pipetrace, i.e., <fname|stdout|stderr> <range>
-fetch:ifqsize             32 # instruction fetch queue size (in insts)
-fetch:mplat                3 # extra branch mis-prediction latency
-fetch:speed                1 # speed of front-end of machine relative to execution core
-bpred                perfect # branch predictor type {nottaken|taken|perfect|bimod|2lev|comb}
-bpred:bimod     2048 # bimodal predictor config (<table size>)
-bpred:2lev      1 16384 4 0 # 2-level predictor config (<l1size> <l2size> <hist_size> <xor>)
-bpred:comb      1024 # combining predictor config (<meta_table_size>)
-bpred:ras                  8 # return address stack size (0 for no return stack)
-bpred:btb       512 4 # BTB config (<num_sets> <associativity>)
# -bpred:spec_update       <null> # speculative predictors update in {ID|WB} (default non-spec)
-decode:width              32 # instruction decode B/W (insts/cycle)
-issue:width               32 # instruction issue B/W (insts/cycle)
-issue:inorder          false # run pipeline with in-order issue
-issue:wrongpath         true # issue instructions down wrong execution paths
-commit:width               4 # instruction commit B/W (insts/cycle)
-ruu:size                  16 # register update unit (RUU) size
-lsq:size                   8 # load/store queue (LSQ) size
-cache:dl1       dl1:32:64:8:f # l1 data cache config, i.e., {<config>|none}
-cache:dl1lat               1 # l1 data cache hit latency (in cycles)
-cache:dl2       dl2:256:64:8:f # l2 data cache config, i.e., {<config>|none}
-cache:dl2lat               2 # l2 data cache hit latency (in cycles)
-cache:il1       il1:32:64:8:f # l1 inst cache config, i.e., {<config>|dl1|dl2|none}
-cache:il1lat               1 # l1 instruction cache hit latency (in cycles)
-cache:il2                dl2 # l2 instruction cache config, i.e., {<config>|dl2|none}
-cache:il2lat               2 # l2 instruction cache hit latency (in cycles)
-cache:flush            false # flush caches on system calls
-cache:icompress        false # convert 64-bit inst addresses to 32-bit inst equivalents
-mem:lat         103 1 # memory access latency (<first_chunk> <inter_chunk>)
-mem:width                  8 # memory access bus width (in bytes)
-tlb:itlb        itlb:16:4096:4:l # instruction TLB config, i.e., {<config>|none}
-tlb:dtlb        dtlb:32:4096:4:l # data TLB config, i.e., {<config>|none}
-tlb:lat                   30 # inst/data TLB miss latency (in cycles)
-res:ialu                   4 # total number of integer ALU's available
-res:imult                  1 # total number of integer multiplier/dividers available
-res:memport                2 # total number of memory system ports available (to CPU)
-res:fpalu                  4 # total number of floating point ALU's available
-res:fpmult                 1 # total number of floating point multiplier/dividers available
# -pcstat              <null> # profile stat(s) against text addr's (mult uses ok)
-bugcompat              false # operate in backward-compatible bugs mode (for testing only)

  Pipetrace range arguments are formatted as follows:

    {{@|#}<start>}:{{@|#|+}<end>}

  Both ends of the range are optional, if neither are specified, the entire
  execution is traced.  Ranges that start with a `@' designate an address
  range to be traced, those that start with an `#' designate a cycle count
  range.  All other range values represent an instruction count range.  The
  second argument, if specified with a `+', indicates a value relative
  to the first argument, e.g., 1000:+100 == 1000:1100.  Program symbols may
  be used in all contexts.

    Examples:   -ptrace FOO.trc #0:#1000
                -ptrace BAR.trc @2000:
                -ptrace BLAH.trc :1500
                -ptrace UXXE.trc :
                -ptrace FOOBAR.trc @main:+278

  Branch predictor configuration examples for 2-level predictor:
    Configurations:   N, M, W, X
      N   # entries in first level (# of shift register(s))
      W   width of shift register(s)
      M   # entries in 2nd level (# of counters, or other FSM)
      X   (yes-1/no-0) xor history and address for 2nd level index
    Sample predictors:
      GAg     : 1, W, 2^W, 0
      GAp     : 1, W, M (M > 2^W), 0
      PAg     : N, W, 2^W, 0
      PAp     : N, W, M (M == 2^(N+W)), 0
      gshare  : 1, W, 2^W, 1
  Predictor `comb' combines a bimodal and a 2-level predictor.

  The cache config parameter <config> has the following format:

    <name>:<nsets>:<bsize>:<assoc>:<repl>

    <name>   - name of the cache being defined
    <nsets>  - number of sets in the cache
    <bsize>  - block size of the cache
    <assoc>  - associativity of the cache
    <repl>   - block replacement strategy, 'l'-LRU, 'f'-FIFO, 'r'-random

    Examples:   -cache:dl1 dl1:4096:32:1:l
                -dtlb dtlb:128:4096:32:r

  Cache levels can be unified by pointing a level of the instruction cache
  hierarchy at the data cache hiearchy using the "dl1" and "dl2" cache
  configuration arguments.  Most sensible combinations are supported, e.g.,

    A unified l2 cache (il2 is pointed at dl2):
      -cache:il1 il1:128:64:1:l -cache:il2 dl2
      -cache:dl1 dl1:256:32:1:l -cache:dl2 ul2:1024:64:2:l

    Or, a fully unified cache hierarchy (il1 pointed at dl1):
      -cache:il1 dl1
      -cache:dl1 ul1:256:32:1:l -cache:dl2 ul2:1024:64:2:l



sim: ** starting performance simulation **

sim: ** simulation statistics **
sim_num_insn              100000001 # total number of instructions committed
sim_num_refs               33572802 # total number of loads and stores committed
sim_num_loads              25578542 # total number of loads committed
sim_num_stores         7994260.0000 # total number of stores committed
sim_num_branches           12399644 # total number of branches committed
sim_elapsed_time                112 # total simulation time in seconds
sim_inst_rate           892857.1518 # simulation speed (in insts/sec)
sim_total_insn            100000001 # total number of instructions executed
sim_total_refs             33572802 # total number of loads and stores executed
sim_total_loads            25578542 # total number of loads executed
sim_total_stores       7994260.0000 # total number of stores executed
sim_total_branches         12399644 # total number of branches executed
sim_cycle                  35553372 # total simulation time in cycles
sim_IPC                      2.8127 # instructions per cycle
sim_CPI                      0.3555 # cycles per instruction
sim_exec_BW                  2.8127 # total instructions (mis-spec + committed) per cycle
sim_IPB                      8.0647 # instruction per branch
IFQ_count                1137582036 # cumulative IFQ occupancy
IFQ_fcount                 35549412 # cumulative IFQ full count
ifq_occupancy               31.9965 # avg IFQ occupancy (insn's)
ifq_rate                     2.8127 # avg IFQ dispatch rate (insn/cycle)
ifq_latency                 11.3758 # avg IFQ occupant latency (cycle's)
ifq_full                     0.9999 # fraction of time (cycle's) IFQ was full
RUU_count                 541891602 # cumulative RUU occupancy
RUU_fcount                 25109857 # cumulative RUU full count
ruu_occupancy               15.2416 # avg RUU occupancy (insn's)
ruu_rate                     2.8127 # avg RUU dispatch rate (insn/cycle)
ruu_latency                  5.4189 # avg RUU occupant latency (cycle's)
ruu_full                     0.7063 # fraction of time (cycle's) RUU was full
LSQ_count                 192489226 # cumulative LSQ occupancy
LSQ_fcount                  5255247 # cumulative LSQ full count
lsq_occupancy                5.4141 # avg LSQ occupancy (insn's)
lsq_rate                     2.8127 # avg LSQ dispatch rate (insn/cycle)
lsq_latency                  1.9249 # avg LSQ occupant latency (cycle's)
lsq_full                     0.1478 # fraction of time (cycle's) LSQ was full
sim_slip                  867953562 # total number of slip cycles
avg_sim_slip                 8.6795 # the average slip between issue and retirement
il1.accesses              401032812 # total number of accesses
il1.hits                  401032776 # total number of hits
il1.misses                       36 # total number of misses
il1.replacements                  0 # total number of replacements
il1.writebacks                    0 # total number of writebacks
il1.invalidations                 0 # total number of invalidations
il1.miss_rate                0.0000 # miss rate (i.e., misses/ref)
il1.repl_rate                0.0000 # replacement rate (i.e., repls/ref)
il1.wb_rate                  0.0000 # writeback rate (i.e., wrbks/ref)
il1.inv_rate                 0.0000 # invalidation rate (i.e., invs/ref)
dl1.accesses               33565182 # total number of accesses
dl1.hits                   33550670 # total number of hits
dl1.misses                    14512 # total number of misses
dl1.replacements              14256 # total number of replacements
dl1.writebacks                 6790 # total number of writebacks
dl1.invalidations                 0 # total number of invalidations
dl1.miss_rate                0.0004 # miss rate (i.e., misses/ref)
dl1.repl_rate                0.0004 # replacement rate (i.e., repls/ref)
dl1.wb_rate                  0.0002 # writeback rate (i.e., wrbks/ref)
dl1.inv_rate                 0.0000 # invalidation rate (i.e., invs/ref)
dl2.accesses                  21338 # total number of accesses
dl2.hits                       8402 # total number of hits
dl2.misses                    12936 # total number of misses
dl2.replacements              10888 # total number of replacements
dl2.writebacks                 5382 # total number of writebacks
dl2.invalidations                 0 # total number of invalidations
dl2.miss_rate                0.6062 # miss rate (i.e., misses/ref)
dl2.repl_rate                0.5103 # replacement rate (i.e., repls/ref)
dl2.wb_rate                  0.2522 # writeback rate (i.e., wrbks/ref)
dl2.inv_rate                 0.0000 # invalidation rate (i.e., invs/ref)
itlb.accesses             401032812 # total number of accesses
itlb.hits                 401032810 # total number of hits
itlb.misses                       2 # total number of misses
itlb.replacements                 0 # total number of replacements
itlb.writebacks                   0 # total number of writebacks
itlb.invalidations                0 # total number of invalidations
itlb.miss_rate               0.0000 # miss rate (i.e., misses/ref)
itlb.repl_rate               0.0000 # replacement rate (i.e., repls/ref)
itlb.wb_rate                 0.0000 # writeback rate (i.e., wrbks/ref)
itlb.inv_rate                0.0000 # invalidation rate (i.e., invs/ref)
dtlb.accesses              33572798 # total number of accesses
dtlb.hits                  33572592 # total number of hits
dtlb.misses                     206 # total number of misses
dtlb.replacements                78 # total number of replacements
dtlb.writebacks                   0 # total number of writebacks
dtlb.invalidations                0 # total number of invalidations
dtlb.miss_rate               0.0000 # miss rate (i.e., misses/ref)
dtlb.repl_rate               0.0000 # replacement rate (i.e., repls/ref)
dtlb.wb_rate                 0.0000 # writeback rate (i.e., wrbks/ref)
dtlb.inv_rate                0.0000 # invalidation rate (i.e., invs/ref)
rename_power           246629238.6657 # total power usage of rename unit
bpred_power            118623417.3880 # total power usage of bpred unit
window_power           1860030431.6952 # total power usage of instruction window
lsq_power              34247892.1718 # total power usage of load/store queue
regfile_power          2690437412.6346 # total power usage of arch. regfile
icache_power           107821438.2242 # total power usage of icache
dcache_power           228924537.8825 # total power usage of dcache
dcache2_power          110321287.4209 # total power usage of dcache2
alu_power              673422655.5865 # total power usage of alu
falu_power             507739303.8729 # total power usage of falu
resultbus_power        1328392028.2675 # total power usage of resultbus
clock_power            2764875876.6487 # total power usage of clock
avg_rename_power             6.9369 # avg power usage of rename unit
avg_bpred_power              3.3365 # avg power usage of bpred unit
avg_window_power            52.3166 # avg power usage of instruction window
avg_lsq_power                0.9633 # avg power usage of lsq
avg_regfile_power           75.6732 # avg power usage of arch. regfile
avg_icache_power             3.0327 # avg power usage of icache
avg_dcache_power             6.4389 # avg power usage of dcache
avg_dcache2_power            3.1030 # avg power usage of dcache2
avg_alu_power               18.9412 # avg power usage of alu
avg_falu_power              14.2810 # avg power usage of falu
avg_resultbus_power         37.3633 # avg power usage of resultbus
avg_clock_power             77.7669 # avg power usage of clock
fetch_stage_power      226444855.6122 # total power usage of fetch stage
dispatch_stage_power   246629238.6657 # total power usage of dispatch stage
issue_stage_power      4235338833.0245 # total power usage of issue stage
avg_fetch_power              6.3692 # average power of fetch unit per cycle
avg_dispatch_power           6.9369 # average power of dispatch unit per cycle
avg_issue_power            119.1262 # average power of issue unit per cycle
total_power            10163726216.5856 # total power per cycle
avg_total_power_cycle      285.8724 # average total power per cycle
avg_total_power_cycle_nofp_nod2     268.4883 # average total power per cycle
avg_total_power_insn       101.6373 # average total power per insn
avg_total_power_insn_nofp_nod2      95.4567 # average total power per insn
rename_power_cc1       224985160.2303 # total power usage of rename unit_cc1
bpred_power_cc1              0.0000 # total power usage of bpred unit_cc1
window_power_cc1       1646343654.4238 # total power usage of instruction window_cc1
lsq_power_cc1          12686949.6326 # total power usage of lsq_cc1
regfile_power_cc1      2239831927.1434 # total power usage of arch. regfile_cc1
icache_power_cc1       98359052.8411 # total power usage of icache_cc1
dcache_power_cc1       155668013.1571 # total power usage of dcache_cc1
dcache2_power_cc1        45132.7972 # total power usage of dcache2_cc1
alu_power_cc1          155049856.6123 # total power usage of alu_cc1
resultbus_power_cc1    1193482415.8007 # total power usage of resultbus_cc1
clock_power_cc1        2169953354.1713 # total power usage of clock_cc1
avg_rename_power_cc1         6.3281 # avg power usage of rename unit_cc1
avg_bpred_power_cc1          0.0000 # avg power usage of bpred unit_cc1
avg_window_power_cc1        46.3063 # avg power usage of instruction window_cc1
avg_lsq_power_cc1            0.3568 # avg power usage of lsq_cc1
avg_regfile_power_cc1       62.9991 # avg power usage of arch. regfile_cc1
avg_icache_power_cc1         2.7665 # avg power usage of icache_cc1
avg_dcache_power_cc1         4.3784 # avg power usage of dcache_cc1
avg_dcache2_power_cc1        0.0013 # avg power usage of dcache2_cc1
avg_alu_power_cc1            4.3610 # avg power usage of alu_cc1
avg_resultbus_power_cc1      33.5688 # avg power usage of resultbus_cc1
avg_clock_power_cc1         61.0337 # avg power usage of clock_cc1
fetch_stage_power_cc1  98359052.8411 # total power usage of fetch stage_cc1
dispatch_stage_power_cc1 224985160.2303 # total power usage of dispatch stage_cc1
issue_stage_power_cc1  3163276022.4236 # total power usage of issue stage_cc1
avg_fetch_power_cc1          2.7665 # average power of fetch unit per cycle_cc1
avg_dispatch_power_cc1       6.3281 # average power of dispatch unit per cycle_cc1
avg_issue_power_cc1         88.9726 # average power of issue unit per cycle_cc1
total_power_cycle_cc1  7896405516.8097 # total power per cycle_cc1
avg_total_power_cycle_cc1     222.1000 # average total power per cycle_cc1
avg_total_power_insn_cc1      78.9641 # average total power per insn_cc1
rename_power_cc2       21677729.4414 # total power usage of rename unit_cc2
bpred_power_cc2              0.0000 # total power usage of bpred unit_cc2
window_power_cc2       249924603.9635 # total power usage of instruction window_cc2
lsq_power_cc2          8569751.9789 # total power usage of lsq_cc2
regfile_power_cc2      821791449.2412 # total power usage of arch. regfile_cc2
icache_power_cc2       98359052.8411 # total power usage of icache_cc2
dcache_power_cc2       108061392.5777 # total power usage of dcache_cc2
dcache2_power_cc2        33105.6592 # total power usage of dcache2_cc2
alu_power_cc2          116503252.0565 # total power usage of alu_cc2
resultbus_power_cc2    123888834.0447 # total power usage of resultbus_cc2
clock_power_cc2        586890111.4244 # total power usage of clock_cc2
avg_rename_power_cc2         0.6097 # avg power usage of rename unit_cc2
avg_bpred_power_cc2          0.0000 # avg power usage of bpred unit_cc2
avg_window_power_cc2         7.0296 # avg power usage of instruction window_cc2
avg_lsq_power_cc2            0.2410 # avg power usage of instruction lsq_cc2
avg_regfile_power_cc2       23.1143 # avg power usage of arch. regfile_cc2
avg_icache_power_cc2         2.7665 # avg power usage of icache_cc2
avg_dcache_power_cc2         3.0394 # avg power usage of dcache_cc2
avg_dcache2_power_cc2        0.0009 # avg power usage of dcache2_cc2
avg_alu_power_cc2            3.2769 # avg power usage of alu_cc2
avg_resultbus_power_cc2       3.4846 # avg power usage of resultbus_cc2
avg_clock_power_cc2         16.5073 # avg power usage of clock_cc2
fetch_stage_power_cc2  98359052.8411 # total power usage of fetch stage_cc2
dispatch_stage_power_cc2 21677729.4414 # total power usage of dispatch stage_cc2
issue_stage_power_cc2  606980940.2805 # total power usage of issue stage_cc2
avg_fetch_power_cc2          2.7665 # average power of fetch unit per cycle_cc2
avg_dispatch_power_cc2       0.6097 # average power of dispatch unit per cycle_cc2
avg_issue_power_cc2         17.0724 # average power of issue unit per cycle_cc2
total_power_cycle_cc2  2135699283.2286 # total power per cycle_cc2
avg_total_power_cycle_cc2      60.0702 # average total power per cycle_cc2
avg_total_power_insn_cc2      21.3570 # average total power per insn_cc2
rename_power_cc3       23842137.2856 # total power usage of rename unit_cc3
bpred_power_cc3        11862341.7410 # total power usage of bpred unit_cc3
window_power_cc3       253652115.7518 # total power usage of instruction window_cc3
lsq_power_cc3          10703463.5908 # total power usage of lsq_cc3
regfile_power_cc3      842396315.5755 # total power usage of arch. regfile_cc3
icache_power_cc3       99305291.3834 # total power usage of icache_cc3
dcache_power_cc3       116028632.6048 # total power usage of dcache_cc3
dcache2_power_cc3      11060721.1307 # total power usage of dcache2_cc3
alu_power_cc3          168340531.7921 # total power usage of alu_cc3
resultbus_power_cc3    129423245.9908 # total power usage of resultbus_cc3
clock_power_cc3        627663473.1398 # total power usage of clock_cc3
avg_rename_power_cc3         0.6706 # avg power usage of rename unit_cc3
avg_bpred_power_cc3          0.3336 # avg power usage of bpred unit_cc3
avg_window_power_cc3         7.1344 # avg power usage of instruction window_cc3
avg_lsq_power_cc3            0.3011 # avg power usage of instruction lsq_cc3
avg_regfile_power_cc3       23.6939 # avg power usage of arch. regfile_cc3
avg_icache_power_cc3         2.7931 # avg power usage of icache_cc3
avg_dcache_power_cc3         3.2635 # avg power usage of dcache_cc3
avg_dcache2_power_cc3        0.3111 # avg power usage of dcache2_cc3
avg_alu_power_cc3            4.7349 # avg power usage of alu_cc3
avg_resultbus_power_cc3       3.6403 # avg power usage of resultbus_cc3
avg_clock_power_cc3         17.6541 # avg power usage of clock_cc3
fetch_stage_power_cc3  111167633.1245 # total power usage of fetch stage_cc3
dispatch_stage_power_cc3 23842137.2856 # total power usage of dispatch stage_cc3
issue_stage_power_cc3  689208710.8609 # total power usage of issue stage_cc3
avg_fetch_power_cc3          3.1268 # average power of fetch unit per cycle_cc3
avg_dispatch_power_cc3       0.6706 # average power of dispatch unit per cycle_cc3
avg_issue_power_cc3         19.3852 # average power of issue unit per cycle_cc3
total_power_cycle_cc3  2294278269.9863 # total power per cycle_cc3
avg_total_power_cycle_cc3      64.5305 # average total power per cycle_cc3
avg_total_power_insn_cc3      22.9428 # average total power per insn_cc3
total_rename_access       100000001 # total number accesses of rename unit
total_bpred_access                0 # total number accesses of bpred unit
total_window_access       389901589 # total number accesses of instruction window
total_lsq_access           33580414 # total number accesses of load/store queue
total_regfile_access      145182628 # total number accesses of arch. regfile
total_icache_access       401032812 # total number accesses of icache
total_dcache_access        33565182 # total number accesses of dcache
total_dcache2_access          21338 # total number accesses of dcache2
total_alu_access           99999992 # total number accesses of alu
total_resultbus_access    113178883 # total number accesses of resultbus
avg_rename_access            2.8127 # avg number accesses of rename unit
avg_bpred_access             0.0000 # avg number accesses of bpred unit
avg_window_access           10.9667 # avg number accesses of instruction window
avg_lsq_access               0.9445 # avg number accesses of lsq
avg_regfile_access           4.0835 # avg number accesses of arch. regfile
avg_icache_access           11.2797 # avg number accesses of icache
avg_dcache_access            0.9441 # avg number accesses of dcache
avg_dcache2_access           0.0006 # avg number accesses of dcache2
avg_alu_access               2.8127 # avg number accesses of alu
avg_resultbus_access         3.1834 # avg number accesses of resultbus
max_rename_access                16 # max number accesses of rename unit
max_bpred_access                  0 # max number accesses of bpred unit
max_window_access                22 # max number accesses of instruction window
max_lsq_access                    5 # max number accesses of load/store queue
max_regfile_access               11 # max number accesses of arch. regfile
max_icache_access                32 # max number accesses of icache
max_dcache_access                 4 # max number accesses of dcache
max_dcache2_access                2 # max number accesses of dcache2
max_alu_access                    4 # max number accesses of alu
max_resultbus_access              7 # max number accesses of resultbus
max_cycle_power_cc1        242.0068 # maximum cycle power usage of cc1
max_cycle_power_cc2        105.0285 # maximum cycle power usage of cc2
max_cycle_power_cc3        107.9733 # maximum cycle power usage of cc3
sim_invalid_addrs                 0 # total non-speculative bogus addresses seen (debug var)
ld_text_base           0x0120000000 # program text (code) segment base
ld_text_size                 196608 # program text (code) size in bytes
ld_data_base           0x0140000000 # program initialized data segment base
ld_data_size                 146544 # program init'ed `.data' and uninit'ed `.bss' size in bytes
ld_stack_base          0x011ff9b000 # program stack segment base (highest address in stack)
ld_stack_size                 16384 # program initial stack size
ld_prog_entry          0x012000f684 # program entry point (initial PC)
ld_environ_base        0x011ff96ed0 # program environment base address address
ld_target_big_endian              0 # target executable endian-ness, non-zero if big endian
mem.page_count                23388 # total number of pages allocated
mem.page_mem                187104k # total size of memory pages allocated
mem.ptab_misses               23395 # total first level page table misses
mem.ptab_accesses        1611034002 # total page table accesses
mem.ptab_miss_rate           0.0000 # first level page table miss rate

