sim-outorder: SimpleScalar/Alpha Tool Set version 3.0 of August, 2003.
Copyright (c) 1994-2003 by Todd M. Austin, Ph.D. and SimpleScalar, LLC.
All Rights Reserved. This version of SimpleScalar is licensed for academic
non-commercial use.  No portion of this work may be used by any commercial
entity, or for any commercial purpose, without the prior written permission
of SimpleScalar, LLC (info@simplescalar.com).


Processor Parameters:
Issue Width: 4
Window Size: 16
Number of Virtual Registers: 32
Number of Physical Registers: 16
Datapath Width: 64
Total Power Consumption: 72.4401
Branch Predictor Power Consumption: 2.81154  (3.99%)
 branch target buffer power (W): 2.49493
 local predict power (W): 0.0498196
 global predict power (W): 0.0996078
 chooser power (W): 0.0702439
 RAS power (W): 0.0969383
Rename Logic Power Consumption: 0.417965  (0.593%)
 Instruction Decode Power (W): 0.0159915
 RAT decode_power (W): 0.113514
 RAT wordline_power (W): 0.0307815
 RAT bitline_power (W): 0.246771
 DCL Comparators (W): 0.0109075
Instruction Window Power Consumption: 2.20432  (3.13%)
 tagdrive (W): 0.0943488
 tagmatch (W): 0.033695
 Selection Logic (W): 0.0134217
 decode_power (W): 0.0532503
 wordline_power (W): 0.0844643
 bitline_power (W): 1.92514
Load/Store Queue Power Consumption: 0.96318  (1.37%)
 tagdrive (W): 0.457232
 tagmatch (W): 0.100774
 decode_power (W): 0.00799577
 wordline_power (W): 0.0150119
 bitline_power (W): 0.382166
Arch. Register File Power Consumption: 3.57247  (5.07%)
 decode_power (W): 0.113514
 wordline_power (W): 0.0844643
 bitline_power (W): 3.37449
Result Bus Power Consumption: 2.29754  (3.26%)
Total Clock Power: 26.6577  (37.8%)
Int ALU Power: 4.66013  (6.62%)
FP ALU Power: 14.281  (20.3%)
Instruction Cache Power Consumption: 2.76773  (3.93%)
 decode_power (W): 0.151353
 wordline_power (W): 0.180479
 bitline_power (W): 1.42251
 senseamp_power (W): 0.768
 tagarray_power (W): 0.245382
Itlb_power (W): 0.264834 (0.376%)
Data Cache Power Consumption: 5.53546  (7.86%)
 decode_power (W): 0.302705
 wordline_power (W): 0.360958
 bitline_power (W): 2.84503
 senseamp_power (W): 1.536
 tagarray_power (W): 0.490764
Dtlb_power (W): 0.903238 (1.28%)
Level 2 Cache Power Consumption: 3.10298 (4.41%)
 decode_power (W): 0.19487
 wordline_power (W): 0.0430878
 bitline_power (W): 1.77274
 senseamp_power (W): 0.192
 tagarray_power (W): 0.900275
sim: loading EIO file: ../benchmarks/164.gzip.source-ref.eio.gz
sim: command line: ./sim-outorder -config ../configs/current_7486.config ../benchmarks/164.gzip.source-ref.eio.gz 

sim: simulation started @ Mon Nov 23 19:46:46 2015, options follow:

sim-outorder: This simulator implements a very detailed out-of-order issue
superscalar processor with a two-level memory system and speculative
execution support.  This simulator is a performance simulator, tracking the
latency of all pipeline operations.

# -config                     # load configuration from a file
# -dumpconfig                 # dump configuration to a file
# -h                    false # print help message    
# -v                    false # verbose operation     
# -d                    false # enable debug message  
# -i                    false # start in Dlite debugger
-seed                       1 # random number generator seed (0 for timer seed)
# -q                    false # initialize and terminate immediately
# -chkpt               <null> # restore EIO trace execution from <fname>
# -redir:sim     ../results/06_04_2lbp/164.gzip.source-ref.eio.gz.out # redirect simulator output to file (non-interactive only)
# -redir:prog       /dev/null # redirect simulated program output to file
-nice                       0 # simulator scheduling priority
-freq            600000000.0000 # frequency             
-max:inst           100000000 # maximum number of inst's to execute
-fastfwd                    0 # number of insts skipped before timing starts
# -ptrace              <null> # generate pipetrace, i.e., <fname|stdout|stderr> <range>
-fetch:ifqsize              4 # instruction fetch queue size (in insts)
-fetch:mplat                3 # extra branch mis-prediction latency
-fetch:speed                1 # speed of front-end of machine relative to execution core
-bpred                   2lev # branch predictor type {nottaken|taken|perfect|bimod|2lev|comb}
-bpred:bimod     2048 # bimodal predictor config (<table size>)
-bpred:2lev      1 512 4 0 # 2-level predictor config (<l1size> <l2size> <hist_size> <xor>)
-bpred:comb      1024 # combining predictor config (<meta_table_size>)
-bpred:ras                  8 # return address stack size (0 for no return stack)
-bpred:btb       512 4 # BTB config (<num_sets> <associativity>)
# -bpred:spec_update       <null> # speculative predictors update in {ID|WB} (default non-spec)
-decode:width               4 # instruction decode B/W (insts/cycle)
-issue:width                4 # instruction issue B/W (insts/cycle)
-issue:inorder          false # run pipeline with in-order issue
-issue:wrongpath         true # issue instructions down wrong execution paths
-commit:width               4 # instruction commit B/W (insts/cycle)
-ruu:size                  16 # register update unit (RUU) size
-lsq:size                   8 # load/store queue (LSQ) size
-cache:dl1       dl1:32:64:8:f # l1 data cache config, i.e., {<config>|none}
-cache:dl1lat               1 # l1 data cache hit latency (in cycles)
-cache:dl2       dl2:256:64:8:f # l2 data cache config, i.e., {<config>|none}
-cache:dl2lat               2 # l2 data cache hit latency (in cycles)
-cache:il1       il1:32:64:8:f # l1 inst cache config, i.e., {<config>|dl1|dl2|none}
-cache:il1lat               1 # l1 instruction cache hit latency (in cycles)
-cache:il2                dl2 # l2 instruction cache config, i.e., {<config>|dl2|none}
-cache:il2lat               2 # l2 instruction cache hit latency (in cycles)
-cache:flush            false # flush caches on system calls
-cache:icompress        false # convert 64-bit inst addresses to 32-bit inst equivalents
-mem:lat         103 1 # memory access latency (<first_chunk> <inter_chunk>)
-mem:width                  8 # memory access bus width (in bytes)
-tlb:itlb        itlb:16:4096:4:l # instruction TLB config, i.e., {<config>|none}
-tlb:dtlb        dtlb:32:4096:4:l # data TLB config, i.e., {<config>|none}
-tlb:lat                   30 # inst/data TLB miss latency (in cycles)
-res:ialu                   4 # total number of integer ALU's available
-res:imult                  1 # total number of integer multiplier/dividers available
-res:memport                2 # total number of memory system ports available (to CPU)
-res:fpalu                  4 # total number of floating point ALU's available
-res:fpmult                 1 # total number of floating point multiplier/dividers available
# -pcstat              <null> # profile stat(s) against text addr's (mult uses ok)
-bugcompat              false # operate in backward-compatible bugs mode (for testing only)

  Pipetrace range arguments are formatted as follows:

    {{@|#}<start>}:{{@|#|+}<end>}

  Both ends of the range are optional, if neither are specified, the entire
  execution is traced.  Ranges that start with a `@' designate an address
  range to be traced, those that start with an `#' designate a cycle count
  range.  All other range values represent an instruction count range.  The
  second argument, if specified with a `+', indicates a value relative
  to the first argument, e.g., 1000:+100 == 1000:1100.  Program symbols may
  be used in all contexts.

    Examples:   -ptrace FOO.trc #0:#1000
                -ptrace BAR.trc @2000:
                -ptrace BLAH.trc :1500
                -ptrace UXXE.trc :
                -ptrace FOOBAR.trc @main:+278

  Branch predictor configuration examples for 2-level predictor:
    Configurations:   N, M, W, X
      N   # entries in first level (# of shift register(s))
      W   width of shift register(s)
      M   # entries in 2nd level (# of counters, or other FSM)
      X   (yes-1/no-0) xor history and address for 2nd level index
    Sample predictors:
      GAg     : 1, W, 2^W, 0
      GAp     : 1, W, M (M > 2^W), 0
      PAg     : N, W, 2^W, 0
      PAp     : N, W, M (M == 2^(N+W)), 0
      gshare  : 1, W, 2^W, 1
  Predictor `comb' combines a bimodal and a 2-level predictor.

  The cache config parameter <config> has the following format:

    <name>:<nsets>:<bsize>:<assoc>:<repl>

    <name>   - name of the cache being defined
    <nsets>  - number of sets in the cache
    <bsize>  - block size of the cache
    <assoc>  - associativity of the cache
    <repl>   - block replacement strategy, 'l'-LRU, 'f'-FIFO, 'r'-random

    Examples:   -cache:dl1 dl1:4096:32:1:l
                -dtlb dtlb:128:4096:32:r

  Cache levels can be unified by pointing a level of the instruction cache
  hierarchy at the data cache hiearchy using the "dl1" and "dl2" cache
  configuration arguments.  Most sensible combinations are supported, e.g.,

    A unified l2 cache (il2 is pointed at dl2):
      -cache:il1 il1:128:64:1:l -cache:il2 dl2
      -cache:dl1 dl1:256:32:1:l -cache:dl2 ul2:1024:64:2:l

    Or, a fully unified cache hierarchy (il1 pointed at dl1):
      -cache:il1 dl1
      -cache:dl1 ul1:256:32:1:l -cache:dl2 ul2:1024:64:2:l



sim: ** starting performance simulation **

sim: ** simulation statistics **
sim_num_insn              100000001 # total number of instructions committed
sim_num_refs               29543877 # total number of loads and stores committed
sim_num_loads              24675562 # total number of loads committed
sim_num_stores         4868315.0000 # total number of stores committed
sim_num_branches           11709225 # total number of branches committed
sim_elapsed_time                181 # total simulation time in seconds
sim_inst_rate           552486.1934 # simulation speed (in insts/sec)
sim_total_insn            108772489 # total number of instructions executed
sim_total_refs             32590642 # total number of loads and stores executed
sim_total_loads            27479154 # total number of loads executed
sim_total_stores       5111488.0000 # total number of stores executed
sim_total_branches         12812304 # total number of branches executed
sim_cycle                  67644326 # total simulation time in cycles
sim_IPC                      1.4783 # instructions per cycle
sim_CPI                      0.6764 # cycles per instruction
sim_exec_BW                  1.6080 # total instructions (mis-spec + committed) per cycle
sim_IPB                      8.5403 # instruction per branch
IFQ_count                 241776097 # cumulative IFQ occupancy
IFQ_fcount                 57968183 # cumulative IFQ full count
ifq_occupancy                3.5742 # avg IFQ occupancy (insn's)
ifq_rate                     1.6080 # avg IFQ dispatch rate (insn/cycle)
ifq_latency                  2.2228 # avg IFQ occupant latency (cycle's)
ifq_full                     0.8570 # fraction of time (cycle's) IFQ was full
RUU_count                 981398722 # cumulative RUU occupancy
RUU_fcount                 48234665 # cumulative RUU full count
ruu_occupancy               14.5082 # avg RUU occupancy (insn's)
ruu_rate                     1.6080 # avg RUU dispatch rate (insn/cycle)
ruu_latency                  9.0225 # avg RUU occupant latency (cycle's)
ruu_full                     0.7131 # fraction of time (cycle's) RUU was full
LSQ_count                 315592166 # cumulative LSQ occupancy
LSQ_fcount                  6684795 # cumulative LSQ full count
lsq_occupancy                4.6655 # avg LSQ occupancy (insn's)
lsq_rate                     1.6080 # avg LSQ dispatch rate (insn/cycle)
lsq_latency                  2.9014 # avg LSQ occupant latency (cycle's)
lsq_full                     0.0988 # fraction of time (cycle's) LSQ was full
sim_slip                 1368119940 # total number of slip cycles
avg_sim_slip                13.6812 # the average slip between issue and retirement
bpred_2lev.lookups         13238324 # total number of bpred lookups
bpred_2lev.updates         11709225 # total number of updates
bpred_2lev.addr_hits       10856045 # total number of address-predicted hits
bpred_2lev.dir_hits        10856160 # total number of direction-predicted hits (includes addr-hits)
bpred_2lev.misses            853065 # total number of misses
bpred_2lev.jr_hits           287658 # total number of address-predicted hits for JR's
bpred_2lev.jr_seen           287672 # total number of JR's seen
bpred_2lev.jr_non_ras_hits.PP           11 # total number of address-predicted hits for non-RAS JR's
bpred_2lev.jr_non_ras_seen.PP           12 # total number of non-RAS JR's seen
bpred_2lev.bpred_addr_rate    0.9271 # branch address-prediction rate (i.e., addr-hits/updates)
bpred_2lev.bpred_dir_rate    0.9271 # branch direction-prediction rate (i.e., all-hits/updates)
bpred_2lev.bpred_jr_rate    1.0000 # JR address-prediction rate (i.e., JR addr-hits/JRs seen)
bpred_2lev.bpred_jr_non_ras_rate.PP    0.9167 # non-RAS JR addr-pred rate (ie, non-RAS JR hits/JRs seen)
bpred_2lev.retstack_pushes       395616 # total number of address pushed onto ret-addr stack
bpred_2lev.retstack_pops       408240 # total number of address popped off of ret-addr stack
bpred_2lev.used_ras.PP       287660 # total number of RAS predictions used
bpred_2lev.ras_hits.PP       287647 # total number of RAS hits
bpred_2lev.ras_rate.PP    1.0000 # RAS prediction rate (i.e., RAS hits/used RAS)
il1.accesses              111939473 # total number of accesses
il1.hits                  111939307 # total number of hits
il1.misses                      166 # total number of misses
il1.replacements                  0 # total number of replacements
il1.writebacks                    0 # total number of writebacks
il1.invalidations                 0 # total number of invalidations
il1.miss_rate                0.0000 # miss rate (i.e., misses/ref)
il1.repl_rate                0.0000 # replacement rate (i.e., repls/ref)
il1.wb_rate                  0.0000 # writeback rate (i.e., wrbks/ref)
il1.inv_rate                 0.0000 # invalidation rate (i.e., invs/ref)
dl1.accesses               31024022 # total number of accesses
dl1.hits                   27296095 # total number of hits
dl1.misses                  3727927 # total number of misses
dl1.replacements            3727671 # total number of replacements
dl1.writebacks               486531 # total number of writebacks
dl1.invalidations                 0 # total number of invalidations
dl1.miss_rate                0.1202 # miss rate (i.e., misses/ref)
dl1.repl_rate                0.1202 # replacement rate (i.e., repls/ref)
dl1.wb_rate                  0.0157 # writeback rate (i.e., wrbks/ref)
dl1.inv_rate                 0.0000 # invalidation rate (i.e., invs/ref)
dl2.accesses                4214624 # total number of accesses
dl2.hits                    4024231 # total number of hits
dl2.misses                   190393 # total number of misses
dl2.replacements             188345 # total number of replacements
dl2.writebacks                93688 # total number of writebacks
dl2.invalidations                 0 # total number of invalidations
dl2.miss_rate                0.0452 # miss rate (i.e., misses/ref)
dl2.repl_rate                0.0447 # replacement rate (i.e., repls/ref)
dl2.wb_rate                  0.0222 # writeback rate (i.e., wrbks/ref)
dl2.inv_rate                 0.0000 # invalidation rate (i.e., invs/ref)
itlb.accesses             111939473 # total number of accesses
itlb.hits                 111939463 # total number of hits
itlb.misses                      10 # total number of misses
itlb.replacements                 0 # total number of replacements
itlb.writebacks                   0 # total number of writebacks
itlb.invalidations                0 # total number of invalidations
itlb.miss_rate               0.0000 # miss rate (i.e., misses/ref)
itlb.repl_rate               0.0000 # replacement rate (i.e., repls/ref)
itlb.wb_rate                 0.0000 # writeback rate (i.e., wrbks/ref)
itlb.inv_rate                0.0000 # invalidation rate (i.e., invs/ref)
dtlb.accesses              31067805 # total number of accesses
dtlb.hits                  31067587 # total number of hits
dtlb.misses                     218 # total number of misses
dtlb.replacements                90 # total number of replacements
dtlb.writebacks                   0 # total number of writebacks
dtlb.invalidations                0 # total number of invalidations
dtlb.miss_rate               0.0000 # miss rate (i.e., misses/ref)
dtlb.repl_rate               0.0000 # replacement rate (i.e., repls/ref)
dtlb.wb_rate                 0.0000 # writeback rate (i.e., wrbks/ref)
dtlb.inv_rate                0.0000 # invalidation rate (i.e., invs/ref)
rename_power           28272993.6363 # total power usage of rename unit
bpred_power            190184559.4591 # total power usage of bpred unit
window_power           149109701.2952 # total power usage of instruction window
lsq_power              65153661.1605 # total power usage of load/store queue
regfile_power          241657467.5010 # total power usage of arch. regfile
icache_power           205135684.1186 # total power usage of icache
dcache_power           435541236.8505 # total power usage of dcache
dcache2_power          209898772.1847 # total power usage of dcache2
alu_power              1281263046.0055 # total power usage of alu
falu_power             966031660.7569 # total power usage of falu
resultbus_power        155415740.0867 # total power usage of resultbus
clock_power            1803241141.1742 # total power usage of clock
avg_rename_power             0.4180 # avg power usage of rename unit
avg_bpred_power              2.8115 # avg power usage of bpred unit
avg_window_power             2.2043 # avg power usage of instruction window
avg_lsq_power                0.9632 # avg power usage of lsq
avg_regfile_power            3.5725 # avg power usage of arch. regfile
avg_icache_power             3.0326 # avg power usage of icache
avg_dcache_power             6.4387 # avg power usage of dcache
avg_dcache2_power            3.1030 # avg power usage of dcache2
avg_alu_power               18.9412 # avg power usage of alu
avg_falu_power              14.2810 # avg power usage of falu
avg_resultbus_power          2.2975 # avg power usage of resultbus
avg_clock_power             26.6577 # avg power usage of clock
fetch_stage_power      395320243.5777 # total power usage of fetch stage
dispatch_stage_power   28272993.6363 # total power usage of dispatch stage
issue_stage_power      2296382157.5831 # total power usage of issue stage
avg_fetch_power              5.8441 # average power of fetch unit per cycle
avg_dispatch_power           0.4180 # average power of dispatch unit per cycle
avg_issue_power             33.9479 # average power of issue unit per cycle
total_power            4764874003.4722 # total power per cycle
avg_total_power_cycle       70.4401 # average total power per cycle
avg_total_power_cycle_nofp_nod2      53.0561 # average total power per cycle
avg_total_power_insn        43.8059 # average total power per insn
avg_total_power_insn_nofp_nod2      32.9950 # average total power per insn
rename_power_cc1       17243225.9216 # total power usage of rename unit_cc1
bpred_power_cc1        32087627.6554 # total power usage of bpred unit_cc1
window_power_cc1       103166811.8981 # total power usage of instruction window_cc1
lsq_power_cc1          11753396.8623 # total power usage of lsq_cc1
regfile_power_cc1      141270033.6791 # total power usage of arch. regfile_cc1
icache_power_cc1       127990109.2402 # total power usage of icache_cc1
dcache_power_cc1       136794988.5752 # total power usage of dcache_cc1
dcache2_power_cc1      11517958.0989 # total power usage of dcache2_cc1
alu_power_cc1          205924808.2074 # total power usage of alu_cc1
resultbus_power_cc1    99402527.8743 # total power usage of resultbus_cc1
clock_power_cc1        552781117.8203 # total power usage of clock_cc1
avg_rename_power_cc1         0.2549 # avg power usage of rename unit_cc1
avg_bpred_power_cc1          0.4744 # avg power usage of bpred unit_cc1
avg_window_power_cc1         1.5251 # avg power usage of instruction window_cc1
avg_lsq_power_cc1            0.1738 # avg power usage of lsq_cc1
avg_regfile_power_cc1        2.0884 # avg power usage of arch. regfile_cc1
avg_icache_power_cc1         1.8921 # avg power usage of icache_cc1
avg_dcache_power_cc1         2.0223 # avg power usage of dcache_cc1
avg_dcache2_power_cc1        0.1703 # avg power usage of dcache2_cc1
avg_alu_power_cc1            3.0442 # avg power usage of alu_cc1
avg_resultbus_power_cc1       1.4695 # avg power usage of resultbus_cc1
avg_clock_power_cc1          8.1719 # avg power usage of clock_cc1
fetch_stage_power_cc1  160077736.8956 # total power usage of fetch stage_cc1
dispatch_stage_power_cc1 17243225.9216 # total power usage of dispatch stage_cc1
issue_stage_power_cc1  568560491.5162 # total power usage of issue stage_cc1
avg_fetch_power_cc1          2.3665 # average power of fetch unit per cycle_cc1
avg_dispatch_power_cc1       0.2549 # average power of dispatch unit per cycle_cc1
avg_issue_power_cc1          8.4051 # average power of issue unit per cycle_cc1
total_power_cycle_cc1  1439932605.8327 # total power per cycle_cc1
avg_total_power_cycle_cc1      21.2868 # average total power per cycle_cc1
avg_total_power_insn_cc1      13.2380 # average total power per insn_cc1
rename_power_cc2       11365786.5754 # total power usage of rename unit_cc2
bpred_power_cc2        16460462.5989 # total power usage of bpred unit_cc2
window_power_cc2       85773814.9231 # total power usage of instruction window_cc2
lsq_power_cc2          8215790.9398 # total power usage of lsq_cc2
regfile_power_cc2      41593291.3020 # total power usage of arch. regfile_cc2
icache_power_cc2       127990109.2402 # total power usage of icache_cc2
dcache_power_cc2       99877119.8328 # total power usage of dcache_cc2
dcache2_power_cc2      6538940.1880 # total power usage of dcache2_cc2
alu_power_cc2          122033583.7732 # total power usage of alu_cc2
resultbus_power_cc2    63794505.4461 # total power usage of resultbus_cc2
clock_power_cc2        363916586.7140 # total power usage of clock_cc2
avg_rename_power_cc2         0.1680 # avg power usage of rename unit_cc2
avg_bpred_power_cc2          0.2433 # avg power usage of bpred unit_cc2
avg_window_power_cc2         1.2680 # avg power usage of instruction window_cc2
avg_lsq_power_cc2            0.1215 # avg power usage of instruction lsq_cc2
avg_regfile_power_cc2        0.6149 # avg power usage of arch. regfile_cc2
avg_icache_power_cc2         1.8921 # avg power usage of icache_cc2
avg_dcache_power_cc2         1.4765 # avg power usage of dcache_cc2
avg_dcache2_power_cc2        0.0967 # avg power usage of dcache2_cc2
avg_alu_power_cc2            1.8040 # avg power usage of alu_cc2
avg_resultbus_power_cc2       0.9431 # avg power usage of resultbus_cc2
avg_clock_power_cc2          5.3799 # avg power usage of clock_cc2
fetch_stage_power_cc2  144450571.8391 # total power usage of fetch stage_cc2
dispatch_stage_power_cc2 11365786.5754 # total power usage of dispatch stage_cc2
issue_stage_power_cc2  386233755.1029 # total power usage of issue stage_cc2
avg_fetch_power_cc2          2.1354 # average power of fetch unit per cycle_cc2
avg_dispatch_power_cc2       0.1680 # average power of dispatch unit per cycle_cc2
avg_issue_power_cc2          5.7098 # average power of issue unit per cycle_cc2
total_power_cycle_cc2  947559991.5334 # total power per cycle_cc2
avg_total_power_cycle_cc2      14.0080 # average total power per cycle_cc2
avg_total_power_insn_cc2       8.7114 # average total power per insn_cc2
rename_power_cc3       12468763.3410 # total power usage of rename unit_cc3
bpred_power_cc3        32270155.7558 # total power usage of bpred unit_cc3
window_power_cc3       90074240.9721 # total power usage of instruction window_cc3
lsq_power_cc3          13543237.8979 # total power usage of lsq_cc3
regfile_power_cc3      50271889.2218 # total power usage of arch. regfile_cc3
icache_power_cc3       135704666.6813 # total power usage of icache_cc3
dcache_power_cc3       129951193.8965 # total power usage of dcache_cc3
dcache2_power_cc3      26377792.3520 # total power usage of dcache2_cc3
alu_power_cc3          229567407.0839 # total power usage of alu_cc3
resultbus_power_cc3    68812426.4433 # total power usage of resultbus_cc3
clock_power_cc3        487661704.1667 # total power usage of clock_cc3
avg_rename_power_cc3         0.1843 # avg power usage of rename unit_cc3
avg_bpred_power_cc3          0.4771 # avg power usage of bpred unit_cc3
avg_window_power_cc3         1.3316 # avg power usage of instruction window_cc3
avg_lsq_power_cc3            0.2002 # avg power usage of instruction lsq_cc3
avg_regfile_power_cc3        0.7432 # avg power usage of arch. regfile_cc3
avg_icache_power_cc3         2.0062 # avg power usage of icache_cc3
avg_dcache_power_cc3         1.9211 # avg power usage of dcache_cc3
avg_dcache2_power_cc3        0.3899 # avg power usage of dcache2_cc3
avg_alu_power_cc3            3.3937 # avg power usage of alu_cc3
avg_resultbus_power_cc3       1.0173 # avg power usage of resultbus_cc3
avg_clock_power_cc3          7.2092 # avg power usage of clock_cc3
fetch_stage_power_cc3  167974822.4371 # total power usage of fetch stage_cc3
dispatch_stage_power_cc3 12468763.3410 # total power usage of dispatch stage_cc3
issue_stage_power_cc3  558326298.6456 # total power usage of issue stage_cc3
avg_fetch_power_cc3          2.4832 # average power of fetch unit per cycle_cc3
avg_dispatch_power_cc3       0.1843 # average power of dispatch unit per cycle_cc3
avg_issue_power_cc3          8.2539 # average power of issue unit per cycle_cc3
total_power_cycle_cc3  1276703477.8122 # total power per cycle_cc3
avg_total_power_cycle_cc3      18.8738 # average total power per cycle_cc3
avg_total_power_insn_cc3      11.7374 # average total power per insn_cc3
total_rename_access       108772489 # total number accesses of rename unit
total_bpred_access         11709225 # total number accesses of bpred unit
total_window_access       393499049 # total number accesses of instruction window
total_lsq_access           31137400 # total number accesses of load/store queue
total_regfile_access      154392844 # total number accesses of arch. regfile
total_icache_access       111942503 # total number accesses of icache
total_dcache_access        31024022 # total number accesses of dcache
total_dcache2_access        4214624 # total number accesses of dcache2
total_alu_access          104746925 # total number accesses of alu
total_resultbus_access    118469993 # total number accesses of resultbus
avg_rename_access            1.6080 # avg number accesses of rename unit
avg_bpred_access             0.1731 # avg number accesses of bpred unit
avg_window_access            5.8172 # avg number accesses of instruction window
avg_lsq_access               0.4603 # avg number accesses of lsq
avg_regfile_access           2.2824 # avg number accesses of arch. regfile
avg_icache_access            1.6549 # avg number accesses of icache
avg_dcache_access            0.4586 # avg number accesses of dcache
avg_dcache2_access           0.0623 # avg number accesses of dcache2
avg_alu_access               1.5485 # avg number accesses of alu
avg_resultbus_access         1.7514 # avg number accesses of resultbus
max_rename_access                 4 # max number accesses of rename unit
max_bpred_access                  2 # max number accesses of bpred unit
max_window_access                17 # max number accesses of instruction window
max_lsq_access                    5 # max number accesses of load/store queue
max_regfile_access               12 # max number accesses of arch. regfile
max_icache_access                 4 # max number accesses of icache
max_dcache_access                 4 # max number accesses of dcache
max_dcache2_access                4 # max number accesses of dcache2
max_alu_access                    4 # max number accesses of alu
max_resultbus_access              7 # max number accesses of resultbus
max_cycle_power_cc1         43.0228 # maximum cycle power usage of cc1
max_cycle_power_cc2         34.7191 # maximum cycle power usage of cc2
max_cycle_power_cc3         37.9833 # maximum cycle power usage of cc3
sim_invalid_addrs                 0 # total non-speculative bogus addresses seen (debug var)
ld_text_base           0x0120000000 # program text (code) segment base
ld_text_size                 212992 # program text (code) size in bytes
ld_data_base           0x0140000000 # program initialized data segment base
ld_data_size                 402416 # program init'ed `.data' and uninit'ed `.bss' size in bytes
ld_stack_base          0x011ff9b000 # program stack segment base (highest address in stack)
ld_stack_size                 16384 # program initial stack size
ld_prog_entry          0x012000967c # program entry point (initial PC)
ld_environ_base        0x011ff96ef0 # program environment base address address
ld_target_big_endian              0 # target executable endian-ness, non-zero if big endian
mem.page_count                23132 # total number of pages allocated
mem.page_mem                185056k # total size of memory pages allocated
mem.ptab_misses             7125744 # total first level page table misses
mem.ptab_accesses         889881792 # total page table accesses
mem.ptab_miss_rate           0.0080 # first level page table miss rate

