sim-outorder: SimpleScalar/Alpha Tool Set version 3.0 of August, 2003.
Copyright (c) 1994-2003 by Todd M. Austin, Ph.D. and SimpleScalar, LLC.
All Rights Reserved. This version of SimpleScalar is licensed for academic
non-commercial use.  No portion of this work may be used by any commercial
entity, or for any commercial purpose, without the prior written permission
of SimpleScalar, LLC (info@simplescalar.com).


Processor Parameters:
Issue Width: 32
Window Size: 64
Number of Virtual Registers: 32
Number of Physical Registers: 64
Datapath Width: 64
Total Power Consumption: 489.54
Branch Predictor Power Consumption: 2.84842  (0.584%)
 branch target buffer power (W): 2.49493
 local predict power (W): 0.0867068
 global predict power (W): 0.0996078
 chooser power (W): 0.0702439
 RAS power (W): 0.0969383
Rename Logic Power Consumption: 9.38767  (1.93%)
 Instruction Decode Power (W): 0.127932
 RAT decode_power (W): 0.908115
 RAT wordline_power (W): 0.634666
 RAT bitline_power (W): 6.81527
 DCL Comparators (W): 0.901689
Instruction Window Power Consumption: 139.184  (28.5%)
 tagdrive (W): 9.11588
 tagmatch (W): 2.61737
 Selection Logic (W): 0.450969
 decode_power (W): 1.95317
 wordline_power (W): 4.02565
 bitline_power (W): 121.021
Load/Store Queue Power Consumption: 9.33077  (1.91%)
 tagdrive (W): 4.52311
 tagmatch (W): 1.71883
 decode_power (W): 0.162764
 wordline_power (W): 0.0433172
 bitline_power (W): 2.88275
Arch. Register File Power Consumption: 75.6732  (15.5%)
 decode_power (W): 0.908115
 wordline_power (W): 4.02565
 bitline_power (W): 70.7394
Result Bus Power Consumption: 107.322  (22%)
Total Clock Power: 91.558  (18.8%)
Int ALU Power: 4.66013  (0.956%)
FP ALU Power: 28.5621  (5.86%)
Instruction Cache Power Consumption: 2.76773  (0.568%)
 decode_power (W): 0.151353
 wordline_power (W): 0.180479
 bitline_power (W): 1.42251
 senseamp_power (W): 0.768
 tagarray_power (W): 0.245382
Itlb_power (W): 0.264936 (0.0543%)
Data Cache Power Consumption: 11.0709  (2.27%)
 decode_power (W): 0.60541
 wordline_power (W): 0.721917
 bitline_power (W): 5.69006
 senseamp_power (W): 3.072
 tagarray_power (W): 0.981529
Dtlb_power (W): 1.80688 (0.371%)
Level 2 Cache Power Consumption: 3.10298 (0.636%)
 decode_power (W): 0.19487
 wordline_power (W): 0.0430878
 bitline_power (W): 1.77274
 senseamp_power (W): 0.192
 tagarray_power (W): 0.900275
sim: loading EIO file: ../benchmarks/171.swim.spec_ref.eio.gz
sim: command line: ./sim-outorder -config ../configs/current.config ../benchmarks/171.swim.spec_ref.eio.gz 

sim: simulation started @ Tue Nov 24 12:20:19 2015, options follow:

sim-outorder: This simulator implements a very detailed out-of-order issue
superscalar processor with a two-level memory system and speculative
execution support.  This simulator is a performance simulator, tracking the
latency of all pipeline operations.

# -config                     # load configuration from a file
# -dumpconfig                 # dump configuration to a file
# -h                    false # print help message    
# -v                    false # verbose operation     
# -d                    false # enable debug message  
# -i                    false # start in Dlite debugger
-seed                       1 # random number generator seed (0 for timer seed)
# -q                    false # initialize and terminate immediately
# -chkpt               <null> # restore EIO trace execution from <fname>
# -redir:sim     ../results/25_23_width/171.swim.spec_ref.eio.gz.out # redirect simulator output to file (non-interactive only)
# -redir:prog       /dev/null # redirect simulated program output to file
-nice                       0 # simulator scheduling priority
-freq            600000000.0000 # frequency             
-max:inst           100000000 # maximum number of inst's to execute
-fastfwd                    0 # number of insts skipped before timing starts
# -ptrace              <null> # generate pipetrace, i.e., <fname|stdout|stderr> <range>
-fetch:ifqsize             32 # instruction fetch queue size (in insts)
-fetch:mplat               15 # extra branch mis-prediction latency
-fetch:speed                1 # speed of front-end of machine relative to execution core
-bpred                perfect # branch predictor type {nottaken|taken|perfect|bimod|2lev|comb}
-bpred:bimod     2048 # bimodal predictor config (<table size>)
-bpred:2lev      1 1024 4 0 # 2-level predictor config (<l1size> <l2size> <hist_size> <xor>)
-bpred:comb      1024 # combining predictor config (<meta_table_size>)
-bpred:ras                  8 # return address stack size (0 for no return stack)
-bpred:btb       512 4 # BTB config (<num_sets> <associativity>)
# -bpred:spec_update       <null> # speculative predictors update in {ID|WB} (default non-spec)
-decode:width              32 # instruction decode B/W (insts/cycle)
-issue:width               32 # instruction issue B/W (insts/cycle)
-issue:inorder          false # run pipeline with in-order issue
-issue:wrongpath         true # issue instructions down wrong execution paths
-commit:width              32 # instruction commit B/W (insts/cycle)
-ruu:size                  64 # register update unit (RUU) size
-lsq:size                  64 # load/store queue (LSQ) size
-cache:dl1       dl1:32:64:8:f # l1 data cache config, i.e., {<config>|none}
-cache:dl1lat               1 # l1 data cache hit latency (in cycles)
-cache:dl2       dl2:256:64:8:f # l2 data cache config, i.e., {<config>|none}
-cache:dl2lat               2 # l2 data cache hit latency (in cycles)
-cache:il1       il1:32:64:8:f # l1 inst cache config, i.e., {<config>|dl1|dl2|none}
-cache:il1lat               1 # l1 instruction cache hit latency (in cycles)
-cache:il2                dl2 # l2 instruction cache config, i.e., {<config>|dl2|none}
-cache:il2lat               2 # l2 instruction cache hit latency (in cycles)
-cache:flush            false # flush caches on system calls
-cache:icompress        false # convert 64-bit inst addresses to 32-bit inst equivalents
-mem:lat         103 1 # memory access latency (<first_chunk> <inter_chunk>)
-mem:width                  8 # memory access bus width (in bytes)
-tlb:itlb        itlb:16:4096:4:l # instruction TLB config, i.e., {<config>|none}
-tlb:dtlb        dtlb:32:4096:4:l # data TLB config, i.e., {<config>|none}
-tlb:lat                   30 # inst/data TLB miss latency (in cycles)
-res:ialu                   4 # total number of integer ALU's available
-res:imult                  2 # total number of integer multiplier/dividers available
-res:memport                4 # total number of memory system ports available (to CPU)
-res:fpalu                  8 # total number of floating point ALU's available
-res:fpmult                 2 # total number of floating point multiplier/dividers available
# -pcstat              <null> # profile stat(s) against text addr's (mult uses ok)
-bugcompat              false # operate in backward-compatible bugs mode (for testing only)

  Pipetrace range arguments are formatted as follows:

    {{@|#}<start>}:{{@|#|+}<end>}

  Both ends of the range are optional, if neither are specified, the entire
  execution is traced.  Ranges that start with a `@' designate an address
  range to be traced, those that start with an `#' designate a cycle count
  range.  All other range values represent an instruction count range.  The
  second argument, if specified with a `+', indicates a value relative
  to the first argument, e.g., 1000:+100 == 1000:1100.  Program symbols may
  be used in all contexts.

    Examples:   -ptrace FOO.trc #0:#1000
                -ptrace BAR.trc @2000:
                -ptrace BLAH.trc :1500
                -ptrace UXXE.trc :
                -ptrace FOOBAR.trc @main:+278

  Branch predictor configuration examples for 2-level predictor:
    Configurations:   N, M, W, X
      N   # entries in first level (# of shift register(s))
      W   width of shift register(s)
      M   # entries in 2nd level (# of counters, or other FSM)
      X   (yes-1/no-0) xor history and address for 2nd level index
    Sample predictors:
      GAg     : 1, W, 2^W, 0
      GAp     : 1, W, M (M > 2^W), 0
      PAg     : N, W, 2^W, 0
      PAp     : N, W, M (M == 2^(N+W)), 0
      gshare  : 1, W, 2^W, 1
  Predictor `comb' combines a bimodal and a 2-level predictor.

  The cache config parameter <config> has the following format:

    <name>:<nsets>:<bsize>:<assoc>:<repl>

    <name>   - name of the cache being defined
    <nsets>  - number of sets in the cache
    <bsize>  - block size of the cache
    <assoc>  - associativity of the cache
    <repl>   - block replacement strategy, 'l'-LRU, 'f'-FIFO, 'r'-random

    Examples:   -cache:dl1 dl1:4096:32:1:l
                -dtlb dtlb:128:4096:32:r

  Cache levels can be unified by pointing a level of the instruction cache
  hierarchy at the data cache hiearchy using the "dl1" and "dl2" cache
  configuration arguments.  Most sensible combinations are supported, e.g.,

    A unified l2 cache (il2 is pointed at dl2):
      -cache:il1 il1:128:64:1:l -cache:il2 dl2
      -cache:dl1 dl1:256:32:1:l -cache:dl2 ul2:1024:64:2:l

    Or, a fully unified cache hierarchy (il1 pointed at dl1):
      -cache:il1 dl1
      -cache:dl1 ul1:256:32:1:l -cache:dl2 ul2:1024:64:2:l



sim: ** starting performance simulation **

sim: ** simulation statistics **
sim_num_insn              100000001 # total number of instructions committed
sim_num_refs               34465203 # total number of loads and stores committed
sim_num_loads              27296927 # total number of loads committed
sim_num_stores         7168276.0000 # total number of stores committed
sim_num_branches            2149555 # total number of branches committed
sim_elapsed_time                166 # total simulation time in seconds
sim_inst_rate           602409.6446 # simulation speed (in insts/sec)
sim_total_insn            100000001 # total number of instructions executed
sim_total_refs             34465203 # total number of loads and stores executed
sim_total_loads            27296927 # total number of loads executed
sim_total_stores       7168276.0000 # total number of stores executed
sim_total_branches          2149555 # total number of branches executed
sim_cycle                 136475497 # total simulation time in cycles
sim_IPC                      0.7327 # instructions per cycle
sim_CPI                      1.3648 # cycles per instruction
sim_exec_BW                  0.7327 # total instructions (mis-spec + committed) per cycle
sim_IPB                     46.5213 # instruction per branch
IFQ_count                4363367258 # cumulative IFQ occupancy
IFQ_fcount                136349784 # cumulative IFQ full count
ifq_occupancy               31.9718 # avg IFQ occupancy (insn's)
ifq_rate                     0.7327 # avg IFQ dispatch rate (insn/cycle)
ifq_latency                 43.6337 # avg IFQ occupant latency (cycle's)
ifq_full                     0.9991 # fraction of time (cycle's) IFQ was full
RUU_count                8708415013 # cumulative RUU occupancy
RUU_fcount                134766197 # cumulative RUU full count
ruu_occupancy               63.8094 # avg RUU occupancy (insn's)
ruu_rate                     0.7327 # avg RUU dispatch rate (insn/cycle)
ruu_latency                 87.0841 # avg RUU occupant latency (cycle's)
ruu_full                     0.9875 # fraction of time (cycle's) RUU was full
LSQ_count                2806609834 # cumulative LSQ occupancy
LSQ_fcount                        0 # cumulative LSQ full count
lsq_occupancy               20.5649 # avg LSQ occupancy (insn's)
lsq_rate                     0.7327 # avg LSQ dispatch rate (insn/cycle)
lsq_latency                 28.0661 # avg LSQ occupant latency (cycle's)
lsq_full                     0.0000 # fraction of time (cycle's) LSQ was full
sim_slip                11649479866 # total number of slip cycles
avg_sim_slip               116.4948 # the average slip between issue and retirement
il1.accesses              127943483 # total number of accesses
il1.hits                  127935874 # total number of hits
il1.misses                     7609 # total number of misses
il1.replacements               7353 # total number of replacements
il1.writebacks                    0 # total number of writebacks
il1.invalidations                 0 # total number of invalidations
il1.miss_rate                0.0001 # miss rate (i.e., misses/ref)
il1.repl_rate                0.0001 # replacement rate (i.e., repls/ref)
il1.wb_rate                  0.0000 # writeback rate (i.e., wrbks/ref)
il1.inv_rate                 0.0000 # invalidation rate (i.e., invs/ref)
dl1.accesses               34458149 # total number of accesses
dl1.hits                   31516880 # total number of hits
dl1.misses                  2941269 # total number of misses
dl1.replacements            2941013 # total number of replacements
dl1.writebacks               862411 # total number of writebacks
dl1.invalidations                 0 # total number of invalidations
dl1.miss_rate                0.0854 # miss rate (i.e., misses/ref)
dl1.repl_rate                0.0854 # replacement rate (i.e., repls/ref)
dl1.wb_rate                  0.0250 # writeback rate (i.e., wrbks/ref)
dl1.inv_rate                 0.0000 # invalidation rate (i.e., invs/ref)
dl2.accesses                3811289 # total number of accesses
dl2.hits                     874721 # total number of hits
dl2.misses                  2936568 # total number of misses
dl2.replacements            2934520 # total number of replacements
dl2.writebacks               858420 # total number of writebacks
dl2.invalidations                 0 # total number of invalidations
dl2.miss_rate                0.7705 # miss rate (i.e., misses/ref)
dl2.repl_rate                0.7700 # replacement rate (i.e., repls/ref)
dl2.wb_rate                  0.2252 # writeback rate (i.e., wrbks/ref)
dl2.inv_rate                 0.0000 # invalidation rate (i.e., invs/ref)
itlb.accesses             127943483 # total number of accesses
itlb.hits                 127943451 # total number of hits
itlb.misses                      32 # total number of misses
itlb.replacements                 0 # total number of replacements
itlb.writebacks                   0 # total number of writebacks
itlb.invalidations                0 # total number of invalidations
itlb.miss_rate               0.0000 # miss rate (i.e., misses/ref)
itlb.repl_rate               0.0000 # replacement rate (i.e., repls/ref)
itlb.wb_rate                 0.0000 # writeback rate (i.e., wrbks/ref)
itlb.inv_rate                0.0000 # invalidation rate (i.e., invs/ref)
dtlb.accesses              34465191 # total number of accesses
dtlb.hits                  34419015 # total number of hits
dtlb.misses                   46176 # total number of misses
dtlb.replacements             46048 # total number of replacements
dtlb.writebacks                   0 # total number of writebacks
dtlb.invalidations                0 # total number of invalidations
dtlb.miss_rate               0.0013 # miss rate (i.e., misses/ref)
dtlb.repl_rate               0.0013 # replacement rate (i.e., repls/ref)
dtlb.wb_rate                 0.0000 # writeback rate (i.e., wrbks/ref)
dtlb.inv_rate                0.0000 # invalidation rate (i.e., invs/ref)
rename_power           1281187354.0304 # total power usage of rename unit
bpred_power            388740172.8844 # total power usage of bpred unit
window_power           18995218854.9594 # total power usage of instruction window
lsq_power              1273421757.6395 # total power usage of load/store queue
regfile_power          10327537505.3296 # total power usage of arch. regfile
icache_power           413884351.7909 # total power usage of icache
dcache_power           1757503630.5049 # total power usage of dcache
dcache2_power          423480298.2842 # total power usage of dcache2
alu_power              4534019040.4283 # total power usage of alu
falu_power             3898025416.9176 # total power usage of falu
resultbus_power        14646831669.6681 # total power usage of resultbus
clock_power            12495428244.2810 # total power usage of clock
avg_rename_power             9.3877 # avg power usage of rename unit
avg_bpred_power              2.8484 # avg power usage of bpred unit
avg_window_power           139.1841 # avg power usage of instruction window
avg_lsq_power                9.3308 # avg power usage of lsq
avg_regfile_power           75.6732 # avg power usage of arch. regfile
avg_icache_power             3.0327 # avg power usage of icache
avg_dcache_power            12.8778 # avg power usage of dcache
avg_dcache2_power            3.1030 # avg power usage of dcache2
avg_alu_power               33.2222 # avg power usage of alu
avg_falu_power              28.5621 # avg power usage of falu
avg_resultbus_power        107.3221 # avg power usage of resultbus
avg_clock_power             91.5580 # avg power usage of clock
fetch_stage_power      802624524.6753 # total power usage of fetch stage
dispatch_stage_power   1281187354.0304 # total power usage of dispatch stage
issue_stage_power      41630475251.4843 # total power usage of issue stage
avg_fetch_power              5.8811 # average power of fetch unit per cycle
avg_dispatch_power           9.3877 # average power of dispatch unit per cycle
avg_issue_power            305.0399 # average power of issue unit per cycle
total_power            66537252879.8006 # total power per cycle
avg_total_power_cycle      487.5399 # average total power per cycle
avg_total_power_cycle_nofp_nod2     455.8749 # average total power per cycle
avg_total_power_insn       665.3725 # average total power per insn
avg_total_power_insn_nofp_nod2     622.1575 # average total power per insn
rename_power_cc1       76242155.9395 # total power usage of rename unit_cc1
bpred_power_cc1              0.0000 # total power usage of bpred unit_cc1
window_power_cc1       2812205101.0035 # total power usage of instruction window_cc1
lsq_power_cc1          83551664.5636 # total power usage of lsq_cc1
regfile_power_cc1      497618207.8597 # total power usage of arch. regfile_cc1
icache_power_cc1       24628547.9327 # total power usage of icache_cc1
dcache_power_cc1       170807626.7473 # total power usage of dcache_cc1
dcache2_power_cc1      8033246.9175 # total power usage of dcache2_cc1
alu_power_cc1          528406659.8121 # total power usage of alu_cc1
resultbus_power_cc1    2090916109.0427 # total power usage of resultbus_cc1
clock_power_cc1        1477467650.9223 # total power usage of clock_cc1
avg_rename_power_cc1         0.5587 # avg power usage of rename unit_cc1
avg_bpred_power_cc1          0.0000 # avg power usage of bpred unit_cc1
avg_window_power_cc1        20.6059 # avg power usage of instruction window_cc1
avg_lsq_power_cc1            0.6122 # avg power usage of lsq_cc1
avg_regfile_power_cc1        3.6462 # avg power usage of arch. regfile_cc1
avg_icache_power_cc1         0.1805 # avg power usage of icache_cc1
avg_dcache_power_cc1         1.2516 # avg power usage of dcache_cc1
avg_dcache2_power_cc1        0.0589 # avg power usage of dcache2_cc1
avg_alu_power_cc1            3.8718 # avg power usage of alu_cc1
avg_resultbus_power_cc1      15.3208 # avg power usage of resultbus_cc1
avg_clock_power_cc1         10.8259 # avg power usage of clock_cc1
fetch_stage_power_cc1  24628547.9327 # total power usage of fetch stage_cc1
dispatch_stage_power_cc1 76242155.9395 # total power usage of dispatch stage_cc1
issue_stage_power_cc1  5693920408.0868 # total power usage of issue stage_cc1
avg_fetch_power_cc1          0.1805 # average power of fetch unit per cycle_cc1
avg_dispatch_power_cc1       0.5587 # average power of dispatch unit per cycle_cc1
avg_issue_power_cc1         41.7212 # average power of issue unit per cycle_cc1
total_power_cycle_cc1  7769876970.7410 # total power per cycle_cc1
avg_total_power_cycle_cc1      56.9324 # average total power per cycle_cc1
avg_total_power_insn_cc1      77.6988 # average total power per insn_cc1
rename_power_cc2       29336478.6836 # total power usage of rename unit_cc2
bpred_power_cc2              0.0000 # total power usage of bpred unit_cc2
window_power_cc2       629117223.8478 # total power usage of instruction window_cc2
lsq_power_cc2          47528171.4945 # total power usage of lsq_cc2
regfile_power_cc2      110800267.1597 # total power usage of arch. regfile_cc2
icache_power_cc2       24628547.9327 # total power usage of icache_cc2
dcache_power_cc2       110936254.3188 # total power usage of dcache_cc2
dcache2_power_cc2      2956585.3097 # total power usage of dcache2_cc2
alu_power_cc2          219165750.5095 # total power usage of alu_cc2
resultbus_power_cc2    393488484.1746 # total power usage of resultbus_cc2
clock_power_cc2        350132950.1221 # total power usage of clock_cc2
avg_rename_power_cc2         0.2150 # avg power usage of rename unit_cc2
avg_bpred_power_cc2          0.0000 # avg power usage of bpred unit_cc2
avg_window_power_cc2         4.6097 # avg power usage of instruction window_cc2
avg_lsq_power_cc2            0.3483 # avg power usage of instruction lsq_cc2
avg_regfile_power_cc2        0.8119 # avg power usage of arch. regfile_cc2
avg_icache_power_cc2         0.1805 # avg power usage of icache_cc2
avg_dcache_power_cc2         0.8129 # avg power usage of dcache_cc2
avg_dcache2_power_cc2        0.0217 # avg power usage of dcache2_cc2
avg_alu_power_cc2            1.6059 # avg power usage of alu_cc2
avg_resultbus_power_cc2       2.8832 # avg power usage of resultbus_cc2
avg_clock_power_cc2          2.5655 # avg power usage of clock_cc2
fetch_stage_power_cc2  24628547.9327 # total power usage of fetch stage_cc2
dispatch_stage_power_cc2 29336478.6836 # total power usage of dispatch stage_cc2
issue_stage_power_cc2  1403192469.6548 # total power usage of issue stage_cc2
avg_fetch_power_cc2          0.1805 # average power of fetch unit per cycle_cc2
avg_dispatch_power_cc2       0.2150 # average power of dispatch unit per cycle_cc2
avg_issue_power_cc2         10.2816 # average power of issue unit per cycle_cc2
total_power_cycle_cc2  1918090713.5530 # total power per cycle_cc2
avg_total_power_cycle_cc2      14.0545 # average total power per cycle_cc2
avg_total_power_insn_cc2      19.1809 # average total power per insn_cc2
rename_power_cc3       149830998.4363 # total power usage of rename unit_cc3
bpred_power_cc3        38874017.3866 # total power usage of bpred unit_cc3
window_power_cc3       2214748829.7192 # total power usage of instruction window_cc3
lsq_power_cc3          166377532.6258 # total power usage of lsq_cc3
regfile_power_cc3      1087096130.3877 # total power usage of arch. regfile_cc3
icache_power_cc3       63554128.5979 # total power usage of icache_cc3
dcache_power_cc3       270014203.7284 # total power usage of dcache_cc3
dcache2_power_cc3      44501294.2210 # total power usage of dcache2_cc3
alu_power_cc3          619726988.1390 # total power usage of alu_cc3
resultbus_power_cc3    1635140595.2985 # total power usage of resultbus_cc3
clock_power_cc3        1438718234.0037 # total power usage of clock_cc3
avg_rename_power_cc3         1.0979 # avg power usage of rename unit_cc3
avg_bpred_power_cc3          0.2848 # avg power usage of bpred unit_cc3
avg_window_power_cc3        16.2282 # avg power usage of instruction window_cc3
avg_lsq_power_cc3            1.2191 # avg power usage of instruction lsq_cc3
avg_regfile_power_cc3        7.9655 # avg power usage of arch. regfile_cc3
avg_icache_power_cc3         0.4657 # avg power usage of icache_cc3
avg_dcache_power_cc3         1.9785 # avg power usage of dcache_cc3
avg_dcache2_power_cc3        0.3261 # avg power usage of dcache2_cc3
avg_alu_power_cc3            4.5409 # avg power usage of alu_cc3
avg_resultbus_power_cc3      11.9812 # avg power usage of resultbus_cc3
avg_clock_power_cc3         10.5420 # avg power usage of clock_cc3
fetch_stage_power_cc3  102428145.9845 # total power usage of fetch stage_cc3
dispatch_stage_power_cc3 149830998.4363 # total power usage of dispatch stage_cc3
issue_stage_power_cc3  4950509443.7319 # total power usage of issue stage_cc3
avg_fetch_power_cc3          0.7505 # average power of fetch unit per cycle_cc3
avg_dispatch_power_cc3       1.0979 # average power of dispatch unit per cycle_cc3
avg_issue_power_cc3         36.2740 # average power of issue unit per cycle_cc3
total_power_cycle_cc3  7728582952.5441 # total power per cycle_cc3
avg_total_power_cycle_cc3      56.6298 # average total power per cycle_cc3
avg_total_power_insn_cc3      77.2858 # average total power per insn_cc3
total_rename_access       100000001 # total number accesses of rename unit
total_bpred_access                0 # total number accesses of bpred unit
total_window_access       373394221 # total number accesses of instruction window
total_lsq_access           34472245 # total number accesses of load/store queue
total_regfile_access      160036468 # total number accesses of arch. regfile
total_icache_access       127943483 # total number accesses of icache
total_dcache_access        34458149 # total number accesses of dcache
total_dcache2_access        3811289 # total number accesses of dcache2
total_alu_access           99381942 # total number accesses of alu
total_resultbus_access    125147369 # total number accesses of resultbus
avg_rename_access            0.7327 # avg number accesses of rename unit
avg_bpred_access             0.0000 # avg number accesses of bpred unit
avg_window_access            2.7360 # avg number accesses of instruction window
avg_lsq_access               0.2526 # avg number accesses of lsq
avg_regfile_access           1.1726 # avg number accesses of arch. regfile
avg_icache_access            0.9375 # avg number accesses of icache
avg_dcache_access            0.2525 # avg number accesses of dcache
avg_dcache2_access           0.0279 # avg number accesses of dcache2
avg_alu_access               0.7282 # avg number accesses of alu
avg_resultbus_access         0.9170 # avg number accesses of resultbus
max_rename_access                32 # max number accesses of rename unit
max_bpred_access                  0 # max number accesses of bpred unit
max_window_access                58 # max number accesses of instruction window
max_lsq_access                   11 # max number accesses of load/store queue
max_regfile_access               69 # max number accesses of arch. regfile
max_icache_access                32 # max number accesses of icache
max_dcache_access                 8 # max number accesses of dcache
max_dcache2_access                6 # max number accesses of dcache2
max_alu_access                   13 # max number accesses of alu
max_resultbus_access             16 # max number accesses of resultbus
max_cycle_power_cc1        387.5490 # maximum cycle power usage of cc1
max_cycle_power_cc2        193.7765 # maximum cycle power usage of cc2
max_cycle_power_cc3        202.3630 # maximum cycle power usage of cc3
sim_invalid_addrs                 0 # total non-speculative bogus addresses seen (debug var)
ld_text_base           0x0120000000 # program text (code) segment base
ld_text_size                 819200 # program text (code) size in bytes
ld_data_base           0x0140000000 # program initialized data segment base
ld_data_size              199810704 # program init'ed `.data' and uninit'ed `.bss' size in bytes
ld_stack_base          0x011ff9b000 # program stack segment base (highest address in stack)
ld_stack_size                 16384 # program initial stack size
ld_prog_entry          0x012001a610 # program entry point (initial PC)
ld_environ_base        0x011ff96e70 # program environment base address address
ld_target_big_endian              0 # target executable endian-ness, non-zero if big endian
mem.page_count                24496 # total number of pages allocated
mem.page_mem                195968k # total size of memory pages allocated
mem.ptab_misses               24901 # total first level page table misses
mem.ptab_accesses        1166764890 # total page table accesses
mem.ptab_miss_rate           0.0000 # first level page table miss rate

