sim-outorder: SimpleScalar/Alpha Tool Set version 3.0 of August, 2003.
Copyright (c) 1994-2003 by Todd M. Austin, Ph.D. and SimpleScalar, LLC.
All Rights Reserved. This version of SimpleScalar is licensed for academic
non-commercial use.  No portion of this work may be used by any commercial
entity, or for any commercial purpose, without the prior written permission
of SimpleScalar, LLC (info@simplescalar.com).


Processor Parameters:
Issue Width: 8
Window Size: 32
Number of Virtual Registers: 32
Number of Physical Registers: 32
Datapath Width: 64
Total Power Consumption: 144.023
Branch Predictor Power Consumption: 2.79653  (1.97%)
 branch target buffer power (W): 2.49493
 local predict power (W): 0.0348099
 global predict power (W): 0.0996078
 chooser power (W): 0.0702439
 RAS power (W): 0.0969383
Rename Logic Power Consumption: 1.12203  (0.79%)
 Instruction Decode Power (W): 0.0319831
 RAT decode_power (W): 0.227029
 RAT wordline_power (W): 0.0802046
 RAT bitline_power (W): 0.731915
 DCL Comparators (W): 0.0509018
Instruction Window Power Consumption: 10.115  (7.12%)
 tagdrive (W): 0.483157
 tagmatch (W): 0.177897
 Selection Logic (W): 0.0590554
 decode_power (W): 0.227029
 wordline_power (W): 0.288569
 bitline_power (W): 8.87931
Load/Store Queue Power Consumption: 3.94434  (2.78%)
 tagdrive (W): 1.48696
 tagmatch (W): 0.429783
 decode_power (W): 0.0355002
 wordline_power (W): 0.0433172
 bitline_power (W): 1.94878
Arch. Register File Power Consumption: 9.39491  (6.62%)
 decode_power (W): 0.227029
 wordline_power (W): 0.288569
 bitline_power (W): 8.87931
Result Bus Power Consumption: 10.7012  (7.53%)
Total Clock Power: 47.0531  (33.1%)
Int ALU Power: 9.32026  (6.56%)
FP ALU Power: 28.5621  (20.1%)
Instruction Cache Power Consumption: 2.76773  (1.95%)
 decode_power (W): 0.151353
 wordline_power (W): 0.180479
 bitline_power (W): 1.42251
 senseamp_power (W): 0.768
 tagarray_power (W): 0.245382
Itlb_power (W): 0.264936 (0.187%)
Data Cache Power Consumption: 11.0709  (7.8%)
 decode_power (W): 0.60541
 wordline_power (W): 0.721917
 bitline_power (W): 5.69006
 senseamp_power (W): 3.072
 tagarray_power (W): 0.981529
Dtlb_power (W): 1.80688 (1.27%)
Level 2 Cache Power Consumption: 3.10298 (2.18%)
 decode_power (W): 0.19487
 wordline_power (W): 0.0430878
 bitline_power (W): 1.77274
 senseamp_power (W): 0.192
 tagarray_power (W): 0.900275
sim: loading EIO file: ../benchmarks/172.mgrid.spec_ref.eio.gz
sim: command line: ./sim-outorder -config ../configs/current.config ../benchmarks/172.mgrid.spec_ref.eio.gz 

sim: simulation started @ Mon Nov 23 19:17:55 2015, options follow:

sim-outorder: This simulator implements a very detailed out-of-order issue
superscalar processor with a two-level memory system and speculative
execution support.  This simulator is a performance simulator, tracking the
latency of all pipeline operations.

# -config                     # load configuration from a file
# -dumpconfig                 # dump configuration to a file
# -h                    false # print help message    
# -v                    false # verbose operation     
# -d                    false # enable debug message  
# -i                    false # start in Dlite debugger
-seed                       1 # random number generator seed (0 for timer seed)
# -q                    false # initialize and terminate immediately
# -chkpt               <null> # restore EIO trace execution from <fname>
# -redir:sim     ../results/02_01_double/172.mgrid.spec_ref.eio.gz.out # redirect simulator output to file (non-interactive only)
# -redir:prog       /dev/null # redirect simulated program output to file
-nice                       0 # simulator scheduling priority
-freq            600000000.0000 # frequency             
-max:inst           100000000 # maximum number of inst's to execute
-fastfwd                    0 # number of insts skipped before timing starts
# -ptrace              <null> # generate pipetrace, i.e., <fname|stdout|stderr> <range>
-fetch:ifqsize              8 # instruction fetch queue size (in insts)
-fetch:mplat                1 # extra branch mis-prediction latency
-fetch:speed                1 # speed of front-end of machine relative to execution core
-bpred                perfect # branch predictor type {nottaken|taken|perfect|bimod|2lev|comb}
-bpred:bimod     2048 # bimodal predictor config (<table size>)
-bpred:2lev      1 256 2 0 # 2-level predictor config (<l1size> <l2size> <hist_size> <xor>)
-bpred:comb      1024 # combining predictor config (<meta_table_size>)
-bpred:ras                  8 # return address stack size (0 for no return stack)
-bpred:btb       512 4 # BTB config (<num_sets> <associativity>)
# -bpred:spec_update       <null> # speculative predictors update in {ID|WB} (default non-spec)
-decode:width               8 # instruction decode B/W (insts/cycle)
-issue:width                8 # instruction issue B/W (insts/cycle)
-issue:inorder          false # run pipeline with in-order issue
-issue:wrongpath         true # issue instructions down wrong execution paths
-commit:width               8 # instruction commit B/W (insts/cycle)
-ruu:size                  32 # register update unit (RUU) size
-lsq:size                  16 # load/store queue (LSQ) size
-cache:dl1       dl1:32:64:8:f # l1 data cache config, i.e., {<config>|none}
-cache:dl1lat               1 # l1 data cache hit latency (in cycles)
-cache:dl2       dl2:256:64:8:f # l2 data cache config, i.e., {<config>|none}
-cache:dl2lat               2 # l2 data cache hit latency (in cycles)
-cache:il1       il1:32:64:8:f # l1 inst cache config, i.e., {<config>|dl1|dl2|none}
-cache:il1lat               1 # l1 instruction cache hit latency (in cycles)
-cache:il2                dl2 # l2 instruction cache config, i.e., {<config>|dl2|none}
-cache:il2lat               2 # l2 instruction cache hit latency (in cycles)
-cache:flush            false # flush caches on system calls
-cache:icompress        false # convert 64-bit inst addresses to 32-bit inst equivalents
-mem:lat         103 1 # memory access latency (<first_chunk> <inter_chunk>)
-mem:width                  8 # memory access bus width (in bytes)
-tlb:itlb        itlb:16:4096:4:l # instruction TLB config, i.e., {<config>|none}
-tlb:dtlb        dtlb:32:4096:4:l # data TLB config, i.e., {<config>|none}
-tlb:lat                   30 # inst/data TLB miss latency (in cycles)
-res:ialu                   8 # total number of integer ALU's available
-res:imult                  2 # total number of integer multiplier/dividers available
-res:memport                4 # total number of memory system ports available (to CPU)
-res:fpalu                  8 # total number of floating point ALU's available
-res:fpmult                 2 # total number of floating point multiplier/dividers available
# -pcstat              <null> # profile stat(s) against text addr's (mult uses ok)
-bugcompat              false # operate in backward-compatible bugs mode (for testing only)

  Pipetrace range arguments are formatted as follows:

    {{@|#}<start>}:{{@|#|+}<end>}

  Both ends of the range are optional, if neither are specified, the entire
  execution is traced.  Ranges that start with a `@' designate an address
  range to be traced, those that start with an `#' designate a cycle count
  range.  All other range values represent an instruction count range.  The
  second argument, if specified with a `+', indicates a value relative
  to the first argument, e.g., 1000:+100 == 1000:1100.  Program symbols may
  be used in all contexts.

    Examples:   -ptrace FOO.trc #0:#1000
                -ptrace BAR.trc @2000:
                -ptrace BLAH.trc :1500
                -ptrace UXXE.trc :
                -ptrace FOOBAR.trc @main:+278

  Branch predictor configuration examples for 2-level predictor:
    Configurations:   N, M, W, X
      N   # entries in first level (# of shift register(s))
      W   width of shift register(s)
      M   # entries in 2nd level (# of counters, or other FSM)
      X   (yes-1/no-0) xor history and address for 2nd level index
    Sample predictors:
      GAg     : 1, W, 2^W, 0
      GAp     : 1, W, M (M > 2^W), 0
      PAg     : N, W, 2^W, 0
      PAp     : N, W, M (M == 2^(N+W)), 0
      gshare  : 1, W, 2^W, 1
  Predictor `comb' combines a bimodal and a 2-level predictor.

  The cache config parameter <config> has the following format:

    <name>:<nsets>:<bsize>:<assoc>:<repl>

    <name>   - name of the cache being defined
    <nsets>  - number of sets in the cache
    <bsize>  - block size of the cache
    <assoc>  - associativity of the cache
    <repl>   - block replacement strategy, 'l'-LRU, 'f'-FIFO, 'r'-random

    Examples:   -cache:dl1 dl1:4096:32:1:l
                -dtlb dtlb:128:4096:32:r

  Cache levels can be unified by pointing a level of the instruction cache
  hierarchy at the data cache hiearchy using the "dl1" and "dl2" cache
  configuration arguments.  Most sensible combinations are supported, e.g.,

    A unified l2 cache (il2 is pointed at dl2):
      -cache:il1 il1:128:64:1:l -cache:il2 dl2
      -cache:dl1 dl1:256:32:1:l -cache:dl2 ul2:1024:64:2:l

    Or, a fully unified cache hierarchy (il1 pointed at dl1):
      -cache:il1 dl1
      -cache:dl1 ul1:256:32:1:l -cache:dl2 ul2:1024:64:2:l



sim: ** starting performance simulation **

sim: ** simulation statistics **
sim_num_insn              100000001 # total number of instructions committed
sim_num_refs               36272669 # total number of loads and stores committed
sim_num_loads              31712709 # total number of loads committed
sim_num_stores         4559960.0000 # total number of stores committed
sim_num_branches             292900 # total number of branches committed
sim_elapsed_time                119 # total simulation time in seconds
sim_inst_rate           840336.1429 # simulation speed (in insts/sec)
sim_total_insn            100000001 # total number of instructions executed
sim_total_refs             36272669 # total number of loads and stores executed
sim_total_loads            31712709 # total number of loads executed
sim_total_stores       4559960.0000 # total number of stores executed
sim_total_branches           292900 # total number of branches executed
sim_cycle                  77124463 # total simulation time in cycles
sim_IPC                      1.2966 # instructions per cycle
sim_CPI                      0.7712 # cycles per instruction
sim_exec_BW                  1.2966 # total instructions (mis-spec + committed) per cycle
sim_IPB                    341.4135 # instruction per branch
IFQ_count                 616570212 # cumulative IFQ occupancy
IFQ_fcount                 77071054 # cumulative IFQ full count
ifq_occupancy                7.9945 # avg IFQ occupancy (insn's)
ifq_rate                     1.2966 # avg IFQ dispatch rate (insn/cycle)
ifq_latency                  6.1657 # avg IFQ occupant latency (cycle's)
ifq_full                     0.9993 # fraction of time (cycle's) IFQ was full
RUU_count                2192734753 # cumulative RUU occupancy
RUU_fcount                 42557594 # cumulative RUU full count
ruu_occupancy               28.4311 # avg RUU occupancy (insn's)
ruu_rate                     1.2966 # avg RUU dispatch rate (insn/cycle)
ruu_latency                 21.9273 # avg RUU occupant latency (cycle's)
ruu_full                     0.5518 # fraction of time (cycle's) RUU was full
LSQ_count                1000575389 # cumulative LSQ occupancy
LSQ_fcount                 33565136 # cumulative LSQ full count
lsq_occupancy               12.9735 # avg LSQ occupancy (insn's)
lsq_rate                     1.2966 # avg LSQ dispatch rate (insn/cycle)
lsq_latency                 10.0058 # avg LSQ occupant latency (cycle's)
lsq_full                     0.4352 # fraction of time (cycle's) LSQ was full
sim_slip                 3329582590 # total number of slip cycles
avg_sim_slip                33.2958 # the average slip between issue and retirement
il1.accesses              101182780 # total number of accesses
il1.hits                  101182160 # total number of hits
il1.misses                      620 # total number of misses
il1.replacements                364 # total number of replacements
il1.writebacks                    0 # total number of writebacks
il1.invalidations                 0 # total number of invalidations
il1.miss_rate                0.0000 # miss rate (i.e., misses/ref)
il1.repl_rate                0.0000 # replacement rate (i.e., repls/ref)
il1.wb_rate                  0.0000 # writeback rate (i.e., wrbks/ref)
il1.inv_rate                 0.0000 # invalidation rate (i.e., invs/ref)
dl1.accesses               36221083 # total number of accesses
dl1.hits                   34684504 # total number of hits
dl1.misses                  1536579 # total number of misses
dl1.replacements            1536323 # total number of replacements
dl1.writebacks               288463 # total number of writebacks
dl1.invalidations                 0 # total number of invalidations
dl1.miss_rate                0.0424 # miss rate (i.e., misses/ref)
dl1.repl_rate                0.0424 # replacement rate (i.e., repls/ref)
dl1.wb_rate                  0.0080 # writeback rate (i.e., wrbks/ref)
dl1.inv_rate                 0.0000 # invalidation rate (i.e., invs/ref)
dl2.accesses                1825662 # total number of accesses
dl2.hits                     760156 # total number of hits
dl2.misses                  1065506 # total number of misses
dl2.replacements            1063458 # total number of replacements
dl2.writebacks               271061 # total number of writebacks
dl2.invalidations                 0 # total number of invalidations
dl2.miss_rate                0.5836 # miss rate (i.e., misses/ref)
dl2.repl_rate                0.5825 # replacement rate (i.e., repls/ref)
dl2.wb_rate                  0.1485 # writeback rate (i.e., wrbks/ref)
dl2.inv_rate                 0.0000 # invalidation rate (i.e., invs/ref)
itlb.accesses             101182780 # total number of accesses
itlb.hits                 101182752 # total number of hits
itlb.misses                      28 # total number of misses
itlb.replacements                 0 # total number of replacements
itlb.writebacks                   0 # total number of writebacks
itlb.invalidations                0 # total number of invalidations
itlb.miss_rate               0.0000 # miss rate (i.e., misses/ref)
itlb.repl_rate               0.0000 # replacement rate (i.e., repls/ref)
itlb.wb_rate                 0.0000 # writeback rate (i.e., wrbks/ref)
itlb.inv_rate                0.0000 # invalidation rate (i.e., invs/ref)
dtlb.accesses              36272666 # total number of accesses
dtlb.hits                  36251958 # total number of hits
dtlb.misses                   20708 # total number of misses
dtlb.replacements             20580 # total number of replacements
dtlb.writebacks                   0 # total number of writebacks
dtlb.invalidations                0 # total number of invalidations
dtlb.miss_rate               0.0006 # miss rate (i.e., misses/ref)
dtlb.repl_rate               0.0006 # replacement rate (i.e., repls/ref)
dtlb.wb_rate                 0.0000 # writeback rate (i.e., wrbks/ref)
dtlb.inv_rate                0.0000 # invalidation rate (i.e., invs/ref)
rename_power           86536177.2957 # total power usage of rename unit
bpred_power            215680705.7713 # total power usage of bpred unit
window_power           780115210.1856 # total power usage of instruction window
lsq_power              304205080.1741 # total power usage of load/store queue
regfile_power          724577163.1285 # total power usage of arch. regfile
icache_power           233892596.9449 # total power usage of icache
dcache_power           993193111.9904 # total power usage of dcache
dcache2_power          239315417.0646 # total power usage of dcache2
alu_power              2921655968.6301 # total power usage of alu
falu_power             2202835846.9620 # total power usage of falu
resultbus_power        825323393.1897 # total power usage of resultbus
clock_power            3628944976.7512 # total power usage of clock
avg_rename_power             1.1220 # avg power usage of rename unit
avg_bpred_power              2.7965 # avg power usage of bpred unit
avg_window_power            10.1150 # avg power usage of instruction window
avg_lsq_power                3.9443 # avg power usage of lsq
avg_regfile_power            9.3949 # avg power usage of arch. regfile
avg_icache_power             3.0327 # avg power usage of icache
avg_dcache_power            12.8778 # avg power usage of dcache
avg_dcache2_power            3.1030 # avg power usage of dcache2
avg_alu_power               37.8824 # avg power usage of alu
avg_falu_power              28.5621 # avg power usage of falu
avg_resultbus_power         10.7012 # avg power usage of resultbus
avg_clock_power             47.0531 # avg power usage of clock
fetch_stage_power      449573302.7162 # total power usage of fetch stage
dispatch_stage_power   86536177.2957 # total power usage of dispatch stage
issue_stage_power      6063808181.2345 # total power usage of issue stage
avg_fetch_power              5.8292 # average power of fetch unit per cycle
avg_dispatch_power           1.1220 # average power of dispatch unit per cycle
avg_issue_power             78.6237 # average power of issue unit per cycle
total_power            10953439801.1261 # total power per cycle
avg_total_power_cycle      142.0229 # average total power per cycle
avg_total_power_cycle_nofp_nod2     110.3578 # average total power per cycle
avg_total_power_insn       109.5344 # average total power per insn
avg_total_power_insn_nofp_nod2      85.1129 # average total power per insn
rename_power_cc1       19766749.7549 # total power usage of rename unit_cc1
bpred_power_cc1              0.0000 # total power usage of bpred unit_cc1
window_power_cc1       255753785.3958 # total power usage of instruction window_cc1
lsq_power_cc1          37801118.9795 # total power usage of lsq_cc1
regfile_power_cc1      143741635.8493 # total power usage of arch. regfile_cc1
icache_power_cc1       53427333.6475 # total power usage of icache_cc1
dcache_power_cc1       230042810.2877 # total power usage of dcache_cc1
dcache2_power_cc1      4278624.8541 # total power usage of dcache2_cc1
alu_power_cc1          777477073.5242 # total power usage of alu_cc1
resultbus_power_cc1    269276334.9366 # total power usage of resultbus_cc1
clock_power_cc1        913611913.4300 # total power usage of clock_cc1
avg_rename_power_cc1         0.2563 # avg power usage of rename unit_cc1
avg_bpred_power_cc1          0.0000 # avg power usage of bpred unit_cc1
avg_window_power_cc1         3.3161 # avg power usage of instruction window_cc1
avg_lsq_power_cc1            0.4901 # avg power usage of lsq_cc1
avg_regfile_power_cc1        1.8638 # avg power usage of arch. regfile_cc1
avg_icache_power_cc1         0.6927 # avg power usage of icache_cc1
avg_dcache_power_cc1         2.9827 # avg power usage of dcache_cc1
avg_dcache2_power_cc1        0.0555 # avg power usage of dcache2_cc1
avg_alu_power_cc1           10.0808 # avg power usage of alu_cc1
avg_resultbus_power_cc1       3.4915 # avg power usage of resultbus_cc1
avg_clock_power_cc1         11.8459 # avg power usage of clock_cc1
fetch_stage_power_cc1  53427333.6475 # total power usage of fetch stage_cc1
dispatch_stage_power_cc1 19766749.7549 # total power usage of dispatch stage_cc1
issue_stage_power_cc1  1574629747.9778 # total power usage of issue stage_cc1
avg_fetch_power_cc1          0.6927 # average power of fetch unit per cycle_cc1
avg_dispatch_power_cc1       0.2563 # average power of dispatch unit per cycle_cc1
avg_issue_power_cc1         20.4167 # average power of issue unit per cycle_cc1
total_power_cycle_cc1  2705177380.6596 # total power per cycle_cc1
avg_total_power_cycle_cc1      35.0755 # average total power per cycle_cc1
avg_total_power_insn_cc1      27.0518 # average total power per insn_cc1
rename_power_cc2       14025410.1553 # total power usage of rename unit_cc2
bpred_power_cc2              0.0000 # total power usage of bpred unit_cc2
window_power_cc2       193497228.5641 # total power usage of instruction window_cc2
lsq_power_cc2          17273523.9143 # total power usage of lsq_cc2
regfile_power_cc2      66379821.2068 # total power usage of arch. regfile_cc2
icache_power_cc2       53427333.6475 # total power usage of icache_cc2
dcache_power_cc2       116611930.4719 # total power usage of dcache_cc2
dcache2_power_cc2      1416246.6949 # total power usage of dcache2_cc2
alu_power_cc2          259162650.7729 # total power usage of alu_cc2
resultbus_power_cc2    164806391.1670 # total power usage of resultbus_cc2
clock_power_cc2        453414494.7464 # total power usage of clock_cc2
avg_rename_power_cc2         0.1819 # avg power usage of rename unit_cc2
avg_bpred_power_cc2          0.0000 # avg power usage of bpred unit_cc2
avg_window_power_cc2         2.5089 # avg power usage of instruction window_cc2
avg_lsq_power_cc2            0.2240 # avg power usage of instruction lsq_cc2
avg_regfile_power_cc2        0.8607 # avg power usage of arch. regfile_cc2
avg_icache_power_cc2         0.6927 # avg power usage of icache_cc2
avg_dcache_power_cc2         1.5120 # avg power usage of dcache_cc2
avg_dcache2_power_cc2        0.0184 # avg power usage of dcache2_cc2
avg_alu_power_cc2            3.3603 # avg power usage of alu_cc2
avg_resultbus_power_cc2       2.1369 # avg power usage of resultbus_cc2
avg_clock_power_cc2          5.8790 # avg power usage of clock_cc2
fetch_stage_power_cc2  53427333.6475 # total power usage of fetch stage_cc2
dispatch_stage_power_cc2 14025410.1553 # total power usage of dispatch stage_cc2
issue_stage_power_cc2  752767971.5851 # total power usage of issue stage_cc2
avg_fetch_power_cc2          0.6927 # average power of fetch unit per cycle_cc2
avg_dispatch_power_cc2       0.1819 # average power of dispatch unit per cycle_cc2
avg_issue_power_cc2          9.7604 # average power of issue unit per cycle_cc2
total_power_cycle_cc2  1340015031.3410 # total power per cycle_cc2
avg_total_power_cycle_cc2      17.3747 # average total power per cycle_cc2
avg_total_power_insn_cc2      13.4002 # average total power per insn_cc2
rename_power_cc3       20702352.9087 # total power usage of rename unit_cc3
bpred_power_cc3        21568070.6203 # total power usage of bpred unit_cc3
window_power_cc3       243988329.7712 # total power usage of instruction window_cc3
lsq_power_cc3          43837397.5223 # total power usage of lsq_cc3
regfile_power_cc3      122201964.1897 # total power usage of arch. regfile_cc3
icache_power_cc3       71473860.0991 # total power usage of icache_cc3
dcache_power_cc3       193078471.8086 # total power usage of dcache_cc3
dcache2_power_cc3      24919965.7677 # total power usage of dcache2_cc3
alu_power_cc3          473580539.2511 # total power usage of alu_cc3
resultbus_power_cc3    218980889.7316 # total power usage of resultbus_cc3
clock_power_cc3        722133680.6946 # total power usage of clock_cc3
avg_rename_power_cc3         0.2684 # avg power usage of rename unit_cc3
avg_bpred_power_cc3          0.2797 # avg power usage of bpred unit_cc3
avg_window_power_cc3         3.1636 # avg power usage of instruction window_cc3
avg_lsq_power_cc3            0.5684 # avg power usage of instruction lsq_cc3
avg_regfile_power_cc3        1.5845 # avg power usage of arch. regfile_cc3
avg_icache_power_cc3         0.9267 # avg power usage of icache_cc3
avg_dcache_power_cc3         2.5035 # avg power usage of dcache_cc3
avg_dcache2_power_cc3        0.3231 # avg power usage of dcache2_cc3
avg_alu_power_cc3            6.1405 # avg power usage of alu_cc3
avg_resultbus_power_cc3       2.8393 # avg power usage of resultbus_cc3
avg_clock_power_cc3          9.3632 # avg power usage of clock_cc3
fetch_stage_power_cc3  93041930.7193 # total power usage of fetch stage_cc3
dispatch_stage_power_cc3 20702352.9087 # total power usage of dispatch stage_cc3
issue_stage_power_cc3  1198385593.8526 # total power usage of issue stage_cc3
avg_fetch_power_cc3          1.2064 # average power of fetch unit per cycle_cc3
avg_dispatch_power_cc3       0.2684 # average power of dispatch unit per cycle_cc3
avg_issue_power_cc3         15.5383 # average power of issue unit per cycle_cc3
total_power_cycle_cc3  2156465522.3649 # total power per cycle_cc3
avg_total_power_cycle_cc3      27.9608 # average total power per cycle_cc3
avg_total_power_insn_cc3      21.5647 # average total power per insn_cc3
total_rename_access       100000001 # total number accesses of rename unit
total_bpred_access                0 # total number accesses of bpred unit
total_window_access       398970114 # total number accesses of instruction window
total_lsq_access           36324249 # total number accesses of load/store queue
total_regfile_access      196633402 # total number accesses of arch. regfile
total_icache_access       101182780 # total number accesses of icache
total_dcache_access        36221083 # total number accesses of dcache
total_dcache2_access        1825662 # total number accesses of dcache2
total_alu_access           99951769 # total number accesses of alu
total_resultbus_access    131419787 # total number accesses of resultbus
avg_rename_access            1.2966 # avg number accesses of rename unit
avg_bpred_access             0.0000 # avg number accesses of bpred unit
avg_window_access            5.1731 # avg number accesses of instruction window
avg_lsq_access               0.4710 # avg number accesses of lsq
avg_regfile_access           2.5496 # avg number accesses of arch. regfile
avg_icache_access            1.3119 # avg number accesses of icache
avg_dcache_access            0.4696 # avg number accesses of dcache
avg_dcache2_access           0.0237 # avg number accesses of dcache2
avg_alu_access               1.2960 # avg number accesses of alu
avg_resultbus_access         1.7040 # avg number accesses of resultbus
max_rename_access                 8 # max number accesses of rename unit
max_bpred_access                  0 # max number accesses of bpred unit
max_window_access                34 # max number accesses of instruction window
max_lsq_access                    8 # max number accesses of load/store queue
max_regfile_access               24 # max number accesses of arch. regfile
max_icache_access                 8 # max number accesses of icache
max_dcache_access                 8 # max number accesses of dcache
max_dcache2_access                8 # max number accesses of dcache2
max_alu_access                    8 # max number accesses of alu
max_resultbus_access             13 # max number accesses of resultbus
max_cycle_power_cc1        107.5448 # maximum cycle power usage of cc1
max_cycle_power_cc2         74.6869 # maximum cycle power usage of cc2
max_cycle_power_cc3         79.5833 # maximum cycle power usage of cc3
sim_invalid_addrs                 0 # total non-speculative bogus addresses seen (debug var)
ld_text_base           0x0120000000 # program text (code) segment base
ld_text_size                 802816 # program text (code) size in bytes
ld_data_base           0x0140000000 # program initialized data segment base
ld_data_size               58272512 # program init'ed `.data' and uninit'ed `.bss' size in bytes
ld_stack_base          0x011ff9b000 # program stack segment base (highest address in stack)
ld_stack_size                 16384 # program initial stack size
ld_prog_entry          0x0120015684 # program entry point (initial PC)
ld_environ_base        0x011ff96d00 # program environment base address address
ld_target_big_endian              0 # target executable endian-ness, non-zero if big endian
mem.page_count                 7215 # total number of pages allocated
mem.page_mem                 57720k # total size of memory pages allocated
mem.ptab_misses                9053 # total first level page table misses
mem.ptab_accesses         881801200 # total page table accesses
mem.ptab_miss_rate           0.0000 # first level page table miss rate

