sim-outorder: SimpleScalar/Alpha Tool Set version 3.0 of August, 2003.
Copyright (c) 1994-2003 by Todd M. Austin, Ph.D. and SimpleScalar, LLC.
All Rights Reserved. This version of SimpleScalar is licensed for academic
non-commercial use.  No portion of this work may be used by any commercial
entity, or for any commercial purpose, without the prior written permission
of SimpleScalar, LLC (info@simplescalar.com).


Processor Parameters:
Issue Width: 8
Window Size: 32
Number of Virtual Registers: 32
Number of Physical Registers: 32
Datapath Width: 64
Total Power Consumption: 144.023
Branch Predictor Power Consumption: 2.79653  (1.97%)
 branch target buffer power (W): 2.49493
 local predict power (W): 0.0348099
 global predict power (W): 0.0996078
 chooser power (W): 0.0702439
 RAS power (W): 0.0969383
Rename Logic Power Consumption: 1.12203  (0.79%)
 Instruction Decode Power (W): 0.0319831
 RAT decode_power (W): 0.227029
 RAT wordline_power (W): 0.0802046
 RAT bitline_power (W): 0.731915
 DCL Comparators (W): 0.0509018
Instruction Window Power Consumption: 10.115  (7.12%)
 tagdrive (W): 0.483157
 tagmatch (W): 0.177897
 Selection Logic (W): 0.0590554
 decode_power (W): 0.227029
 wordline_power (W): 0.288569
 bitline_power (W): 8.87931
Load/Store Queue Power Consumption: 3.94434  (2.78%)
 tagdrive (W): 1.48696
 tagmatch (W): 0.429783
 decode_power (W): 0.0355002
 wordline_power (W): 0.0433172
 bitline_power (W): 1.94878
Arch. Register File Power Consumption: 9.39491  (6.62%)
 decode_power (W): 0.227029
 wordline_power (W): 0.288569
 bitline_power (W): 8.87931
Result Bus Power Consumption: 10.7012  (7.53%)
Total Clock Power: 47.0531  (33.1%)
Int ALU Power: 9.32026  (6.56%)
FP ALU Power: 28.5621  (20.1%)
Instruction Cache Power Consumption: 2.76773  (1.95%)
 decode_power (W): 0.151353
 wordline_power (W): 0.180479
 bitline_power (W): 1.42251
 senseamp_power (W): 0.768
 tagarray_power (W): 0.245382
Itlb_power (W): 0.264936 (0.187%)
Data Cache Power Consumption: 11.0709  (7.8%)
 decode_power (W): 0.60541
 wordline_power (W): 0.721917
 bitline_power (W): 5.69006
 senseamp_power (W): 3.072
 tagarray_power (W): 0.981529
Dtlb_power (W): 1.80688 (1.27%)
Level 2 Cache Power Consumption: 3.10298 (2.18%)
 decode_power (W): 0.19487
 wordline_power (W): 0.0430878
 bitline_power (W): 1.77274
 senseamp_power (W): 0.192
 tagarray_power (W): 0.900275
sim: loading EIO file: ../benchmarks/175.vpr.route-ref.eio.gz
sim: command line: ./sim-outorder -config ../configs/current.config ../benchmarks/175.vpr.route-ref.eio.gz 

sim: simulation started @ Mon Nov 23 19:17:55 2015, options follow:

sim-outorder: This simulator implements a very detailed out-of-order issue
superscalar processor with a two-level memory system and speculative
execution support.  This simulator is a performance simulator, tracking the
latency of all pipeline operations.

# -config                     # load configuration from a file
# -dumpconfig                 # dump configuration to a file
# -h                    false # print help message    
# -v                    false # verbose operation     
# -d                    false # enable debug message  
# -i                    false # start in Dlite debugger
-seed                       1 # random number generator seed (0 for timer seed)
# -q                    false # initialize and terminate immediately
# -chkpt               <null> # restore EIO trace execution from <fname>
# -redir:sim     ../results/02_01_double/175.vpr.route-ref.eio.gz.out # redirect simulator output to file (non-interactive only)
# -redir:prog       /dev/null # redirect simulated program output to file
-nice                       0 # simulator scheduling priority
-freq            600000000.0000 # frequency             
-max:inst           100000000 # maximum number of inst's to execute
-fastfwd                    0 # number of insts skipped before timing starts
# -ptrace              <null> # generate pipetrace, i.e., <fname|stdout|stderr> <range>
-fetch:ifqsize              8 # instruction fetch queue size (in insts)
-fetch:mplat                1 # extra branch mis-prediction latency
-fetch:speed                1 # speed of front-end of machine relative to execution core
-bpred                perfect # branch predictor type {nottaken|taken|perfect|bimod|2lev|comb}
-bpred:bimod     2048 # bimodal predictor config (<table size>)
-bpred:2lev      1 256 2 0 # 2-level predictor config (<l1size> <l2size> <hist_size> <xor>)
-bpred:comb      1024 # combining predictor config (<meta_table_size>)
-bpred:ras                  8 # return address stack size (0 for no return stack)
-bpred:btb       512 4 # BTB config (<num_sets> <associativity>)
# -bpred:spec_update       <null> # speculative predictors update in {ID|WB} (default non-spec)
-decode:width               8 # instruction decode B/W (insts/cycle)
-issue:width                8 # instruction issue B/W (insts/cycle)
-issue:inorder          false # run pipeline with in-order issue
-issue:wrongpath         true # issue instructions down wrong execution paths
-commit:width               8 # instruction commit B/W (insts/cycle)
-ruu:size                  32 # register update unit (RUU) size
-lsq:size                  16 # load/store queue (LSQ) size
-cache:dl1       dl1:32:64:8:f # l1 data cache config, i.e., {<config>|none}
-cache:dl1lat               1 # l1 data cache hit latency (in cycles)
-cache:dl2       dl2:256:64:8:f # l2 data cache config, i.e., {<config>|none}
-cache:dl2lat               2 # l2 data cache hit latency (in cycles)
-cache:il1       il1:32:64:8:f # l1 inst cache config, i.e., {<config>|dl1|dl2|none}
-cache:il1lat               1 # l1 instruction cache hit latency (in cycles)
-cache:il2                dl2 # l2 instruction cache config, i.e., {<config>|dl2|none}
-cache:il2lat               2 # l2 instruction cache hit latency (in cycles)
-cache:flush            false # flush caches on system calls
-cache:icompress        false # convert 64-bit inst addresses to 32-bit inst equivalents
-mem:lat         103 1 # memory access latency (<first_chunk> <inter_chunk>)
-mem:width                  8 # memory access bus width (in bytes)
-tlb:itlb        itlb:16:4096:4:l # instruction TLB config, i.e., {<config>|none}
-tlb:dtlb        dtlb:32:4096:4:l # data TLB config, i.e., {<config>|none}
-tlb:lat                   30 # inst/data TLB miss latency (in cycles)
-res:ialu                   8 # total number of integer ALU's available
-res:imult                  2 # total number of integer multiplier/dividers available
-res:memport                4 # total number of memory system ports available (to CPU)
-res:fpalu                  8 # total number of floating point ALU's available
-res:fpmult                 2 # total number of floating point multiplier/dividers available
# -pcstat              <null> # profile stat(s) against text addr's (mult uses ok)
-bugcompat              false # operate in backward-compatible bugs mode (for testing only)

  Pipetrace range arguments are formatted as follows:

    {{@|#}<start>}:{{@|#|+}<end>}

  Both ends of the range are optional, if neither are specified, the entire
  execution is traced.  Ranges that start with a `@' designate an address
  range to be traced, those that start with an `#' designate a cycle count
  range.  All other range values represent an instruction count range.  The
  second argument, if specified with a `+', indicates a value relative
  to the first argument, e.g., 1000:+100 == 1000:1100.  Program symbols may
  be used in all contexts.

    Examples:   -ptrace FOO.trc #0:#1000
                -ptrace BAR.trc @2000:
                -ptrace BLAH.trc :1500
                -ptrace UXXE.trc :
                -ptrace FOOBAR.trc @main:+278

  Branch predictor configuration examples for 2-level predictor:
    Configurations:   N, M, W, X
      N   # entries in first level (# of shift register(s))
      W   width of shift register(s)
      M   # entries in 2nd level (# of counters, or other FSM)
      X   (yes-1/no-0) xor history and address for 2nd level index
    Sample predictors:
      GAg     : 1, W, 2^W, 0
      GAp     : 1, W, M (M > 2^W), 0
      PAg     : N, W, 2^W, 0
      PAp     : N, W, M (M == 2^(N+W)), 0
      gshare  : 1, W, 2^W, 1
  Predictor `comb' combines a bimodal and a 2-level predictor.

  The cache config parameter <config> has the following format:

    <name>:<nsets>:<bsize>:<assoc>:<repl>

    <name>   - name of the cache being defined
    <nsets>  - number of sets in the cache
    <bsize>  - block size of the cache
    <assoc>  - associativity of the cache
    <repl>   - block replacement strategy, 'l'-LRU, 'f'-FIFO, 'r'-random

    Examples:   -cache:dl1 dl1:4096:32:1:l
                -dtlb dtlb:128:4096:32:r

  Cache levels can be unified by pointing a level of the instruction cache
  hierarchy at the data cache hiearchy using the "dl1" and "dl2" cache
  configuration arguments.  Most sensible combinations are supported, e.g.,

    A unified l2 cache (il2 is pointed at dl2):
      -cache:il1 il1:128:64:1:l -cache:il2 dl2
      -cache:dl1 dl1:256:32:1:l -cache:dl2 ul2:1024:64:2:l

    Or, a fully unified cache hierarchy (il1 pointed at dl1):
      -cache:il1 dl1
      -cache:dl1 ul1:256:32:1:l -cache:dl2 ul2:1024:64:2:l



sim: ** starting performance simulation **

sim: ** simulation statistics **
sim_num_insn              100000002 # total number of instructions committed
sim_num_refs               44514741 # total number of loads and stores committed
sim_num_loads              32983679 # total number of loads committed
sim_num_stores         11531062.0000 # total number of stores committed
sim_num_branches           10718494 # total number of branches committed
sim_elapsed_time                163 # total simulation time in seconds
sim_inst_rate           613496.9448 # simulation speed (in insts/sec)
sim_total_insn            100000002 # total number of instructions executed
sim_total_refs             44514741 # total number of loads and stores executed
sim_total_loads            32983679 # total number of loads executed
sim_total_stores       11531062.0000 # total number of stores executed
sim_total_branches         10718494 # total number of branches executed
sim_cycle                 150980216 # total simulation time in cycles
sim_IPC                      0.6623 # instructions per cycle
sim_CPI                      1.5098 # cycles per instruction
sim_exec_BW                  0.6623 # total instructions (mis-spec + committed) per cycle
sim_IPB                      9.3297 # instruction per branch
IFQ_count                1207793227 # cumulative IFQ occupancy
IFQ_fcount                150974054 # cumulative IFQ full count
ifq_occupancy                7.9997 # avg IFQ occupancy (insn's)
ifq_rate                     0.6623 # avg IFQ dispatch rate (insn/cycle)
ifq_latency                 12.0779 # avg IFQ occupant latency (cycle's)
ifq_full                     1.0000 # fraction of time (cycle's) IFQ was full
RUU_count                4635663919 # cumulative RUU occupancy
RUU_fcount                100771027 # cumulative RUU full count
ruu_occupancy               30.7038 # avg RUU occupancy (insn's)
ruu_rate                     0.6623 # avg RUU dispatch rate (insn/cycle)
ruu_latency                 46.3566 # avg RUU occupant latency (cycle's)
ruu_full                     0.6674 # fraction of time (cycle's) RUU was full
LSQ_count                1902933592 # cumulative LSQ occupancy
LSQ_fcount                 45653970 # cumulative LSQ full count
lsq_occupancy               12.6039 # avg LSQ occupancy (insn's)
lsq_rate                     0.6623 # avg LSQ dispatch rate (insn/cycle)
lsq_latency                 19.0293 # avg LSQ occupant latency (cycle's)
lsq_full                     0.3024 # fraction of time (cycle's) LSQ was full
sim_slip                 6683112095 # total number of slip cycles
avg_sim_slip                66.8311 # the average slip between issue and retirement
il1.accesses              126427727 # total number of accesses
il1.hits                  126427671 # total number of hits
il1.misses                       56 # total number of misses
il1.replacements                  0 # total number of replacements
il1.writebacks                    0 # total number of writebacks
il1.invalidations                 0 # total number of invalidations
il1.miss_rate                0.0000 # miss rate (i.e., misses/ref)
il1.repl_rate                0.0000 # replacement rate (i.e., repls/ref)
il1.wb_rate                  0.0000 # writeback rate (i.e., wrbks/ref)
il1.inv_rate                 0.0000 # invalidation rate (i.e., invs/ref)
dl1.accesses               40589298 # total number of accesses
dl1.hits                   37651578 # total number of hits
dl1.misses                  2937720 # total number of misses
dl1.replacements            2937464 # total number of replacements
dl1.writebacks              1161632 # total number of writebacks
dl1.invalidations                 0 # total number of invalidations
dl1.miss_rate                0.0724 # miss rate (i.e., misses/ref)
dl1.repl_rate                0.0724 # replacement rate (i.e., repls/ref)
dl1.wb_rate                  0.0286 # writeback rate (i.e., wrbks/ref)
dl1.inv_rate                 0.0000 # invalidation rate (i.e., invs/ref)
dl2.accesses                4099408 # total number of accesses
dl2.hits                    2534116 # total number of hits
dl2.misses                  1565292 # total number of misses
dl2.replacements            1563244 # total number of replacements
dl2.writebacks               734345 # total number of writebacks
dl2.invalidations                 0 # total number of invalidations
dl2.miss_rate                0.3818 # miss rate (i.e., misses/ref)
dl2.repl_rate                0.3813 # replacement rate (i.e., repls/ref)
dl2.wb_rate                  0.1791 # writeback rate (i.e., wrbks/ref)
dl2.inv_rate                 0.0000 # invalidation rate (i.e., invs/ref)
itlb.accesses             126427727 # total number of accesses
itlb.hits                 126427725 # total number of hits
itlb.misses                       2 # total number of misses
itlb.replacements                 0 # total number of replacements
itlb.writebacks                   0 # total number of writebacks
itlb.invalidations                0 # total number of invalidations
itlb.miss_rate               0.0000 # miss rate (i.e., misses/ref)
itlb.repl_rate               0.0000 # replacement rate (i.e., repls/ref)
itlb.wb_rate                 0.0000 # writeback rate (i.e., wrbks/ref)
itlb.inv_rate                0.0000 # invalidation rate (i.e., invs/ref)
dtlb.accesses              44514729 # total number of accesses
dtlb.hits                  43140504 # total number of hits
dtlb.misses                 1374225 # total number of misses
dtlb.replacements           1374097 # total number of replacements
dtlb.writebacks                   0 # total number of writebacks
dtlb.invalidations                0 # total number of invalidations
dtlb.miss_rate               0.0309 # miss rate (i.e., misses/ref)
dtlb.repl_rate               0.0309 # replacement rate (i.e., repls/ref)
dtlb.wb_rate                 0.0000 # writeback rate (i.e., wrbks/ref)
dtlb.inv_rate                0.0000 # invalidation rate (i.e., invs/ref)
rename_power           169404754.6267 # total power usage of rename unit
bpred_power            422220372.4432 # total power usage of bpred unit
window_power           1527167367.4772 # total power usage of instruction window
lsq_power              595517257.3721 # total power usage of load/store queue
regfile_power          1418445098.2376 # total power usage of arch. regfile
icache_power           457872293.5403 # total power usage of icache
dcache_power           1944292445.3349 # total power usage of dcache
dcache2_power          468488104.8174 # total power usage of dcache2
alu_power              5719485521.3574 # total power usage of alu
falu_power             4312310505.2606 # total power usage of falu
resultbus_power        1615667700.1513 # total power usage of resultbus
clock_power            7104087010.6417 # total power usage of clock
avg_rename_power             1.1220 # avg power usage of rename unit
avg_bpred_power              2.7965 # avg power usage of bpred unit
avg_window_power            10.1150 # avg power usage of instruction window
avg_lsq_power                3.9443 # avg power usage of lsq
avg_regfile_power            9.3949 # avg power usage of arch. regfile
avg_icache_power             3.0327 # avg power usage of icache
avg_dcache_power            12.8778 # avg power usage of dcache
avg_dcache2_power            3.1030 # avg power usage of dcache2
avg_alu_power               37.8824 # avg power usage of alu
avg_falu_power              28.5621 # avg power usage of falu
avg_resultbus_power         10.7012 # avg power usage of resultbus
avg_clock_power             47.0531 # avg power usage of clock
fetch_stage_power      880092665.9835 # total power usage of fetch stage
dispatch_stage_power   169404754.6267 # total power usage of dispatch stage
issue_stage_power      11870618396.5103 # total power usage of issue stage
avg_fetch_power              5.8292 # average power of fetch unit per cycle
avg_dispatch_power           1.1220 # average power of dispatch unit per cycle
avg_issue_power             78.6237 # average power of issue unit per cycle
total_power            21442647925.9998 # total power per cycle
avg_total_power_cycle      142.0229 # average total power per cycle
avg_total_power_cycle_nofp_nod2     110.3578 # average total power per cycle
avg_total_power_insn       214.4265 # average total power per insn
avg_total_power_insn_nofp_nod2     166.6185 # average total power per insn
rename_power_cc1       33295954.2443 # total power usage of rename unit_cc1
bpred_power_cc1              0.0000 # total power usage of bpred unit_cc1
window_power_cc1       400653729.8982 # total power usage of instruction window_cc1
lsq_power_cc1          49485887.1192 # total power usage of lsq_cc1
regfile_power_cc1      242145460.5520 # total power usage of arch. regfile_cc1
icache_power_cc1       89993391.0394 # total power usage of icache_cc1
dcache_power_cc1       266411174.5823 # total power usage of dcache_cc1
dcache2_power_cc1      7821863.6066 # total power usage of dcache2_cc1
alu_power_cc1          488893592.7750 # total power usage of alu_cc1
resultbus_power_cc1    400689825.6288 # total power usage of resultbus_cc1
clock_power_cc1        1016403275.3444 # total power usage of clock_cc1
avg_rename_power_cc1         0.2205 # avg power usage of rename unit_cc1
avg_bpred_power_cc1          0.0000 # avg power usage of bpred unit_cc1
avg_window_power_cc1         2.6537 # avg power usage of instruction window_cc1
avg_lsq_power_cc1            0.3278 # avg power usage of lsq_cc1
avg_regfile_power_cc1        1.6038 # avg power usage of arch. regfile_cc1
avg_icache_power_cc1         0.5961 # avg power usage of icache_cc1
avg_dcache_power_cc1         1.7645 # avg power usage of dcache_cc1
avg_dcache2_power_cc1        0.0518 # avg power usage of dcache2_cc1
avg_alu_power_cc1            3.2381 # avg power usage of alu_cc1
avg_resultbus_power_cc1       2.6539 # avg power usage of resultbus_cc1
avg_clock_power_cc1          6.7320 # avg power usage of clock_cc1
fetch_stage_power_cc1  89993391.0394 # total power usage of fetch stage_cc1
dispatch_stage_power_cc1 33295954.2443 # total power usage of dispatch stage_cc1
issue_stage_power_cc1  1613956073.6102 # total power usage of issue stage_cc1
avg_fetch_power_cc1          0.5961 # average power of fetch unit per cycle_cc1
avg_dispatch_power_cc1       0.2205 # average power of dispatch unit per cycle_cc1
avg_issue_power_cc1         10.6899 # average power of issue unit per cycle_cc1
total_power_cycle_cc1  2995794154.7904 # total power per cycle_cc1
avg_total_power_cycle_cc1      19.8423 # average total power per cycle_cc1
avg_total_power_insn_cc1      29.9579 # average total power per insn_cc1
rename_power_cc2       14025410.2973 # total power usage of rename unit_cc2
bpred_power_cc2              0.0000 # total power usage of bpred unit_cc2
window_power_cc2       186467683.4784 # total power usage of instruction window_cc2
lsq_power_cc2          22114472.9125 # total power usage of lsq_cc2
regfile_power_cc2      46477855.2893 # total power usage of arch. regfile_cc2
icache_power_cc2       89993391.0394 # total power usage of icache_cc2
dcache_power_cc2       130675176.0095 # total power usage of dcache_cc2
dcache2_power_cc2      3180091.9509 # total power usage of dcache2_cc2
alu_power_cc2          132366289.1750 # total power usage of alu_cc2
resultbus_power_cc2    153326082.4524 # total power usage of resultbus_cc2
clock_power_cc2        400623684.5857 # total power usage of clock_cc2
avg_rename_power_cc2         0.0929 # avg power usage of rename unit_cc2
avg_bpred_power_cc2          0.0000 # avg power usage of bpred unit_cc2
avg_window_power_cc2         1.2350 # avg power usage of instruction window_cc2
avg_lsq_power_cc2            0.1465 # avg power usage of instruction lsq_cc2
avg_regfile_power_cc2        0.3078 # avg power usage of arch. regfile_cc2
avg_icache_power_cc2         0.5961 # avg power usage of icache_cc2
avg_dcache_power_cc2         0.8655 # avg power usage of dcache_cc2
avg_dcache2_power_cc2        0.0211 # avg power usage of dcache2_cc2
avg_alu_power_cc2            0.8767 # avg power usage of alu_cc2
avg_resultbus_power_cc2       1.0155 # avg power usage of resultbus_cc2
avg_clock_power_cc2          2.6535 # avg power usage of clock_cc2
fetch_stage_power_cc2  89993391.0394 # total power usage of fetch stage_cc2
dispatch_stage_power_cc2 14025410.2973 # total power usage of dispatch stage_cc2
issue_stage_power_cc2  628129795.9786 # total power usage of issue stage_cc2
avg_fetch_power_cc2          0.5961 # average power of fetch unit per cycle_cc2
avg_dispatch_power_cc2       0.0929 # average power of dispatch unit per cycle_cc2
avg_issue_power_cc2          4.1603 # average power of issue unit per cycle_cc2
total_power_cycle_cc2  1179250137.1903 # total power per cycle_cc2
avg_total_power_cycle_cc2       7.8106 # average total power per cycle_cc2
avg_total_power_insn_cc2      11.7925 # average total power per insn_cc2
rename_power_cc3       27636290.3832 # total power usage of rename unit_cc3
bpred_power_cc3        42222037.3975 # total power usage of bpred unit_cc3
window_power_cc3       294902271.0030 # total power usage of instruction window_cc3
lsq_power_cc3          76353162.5979 # total power usage of lsq_cc3
regfile_power_cc3      160706224.5228 # total power usage of arch. regfile_cc3
icache_power_cc3       126781281.6114 # total power usage of icache_cc3
dcache_power_cc3       298889649.0076 # total power usage of dcache_cc3
dcache2_power_cc3      49249323.2567 # total power usage of dcache2_cc3
alu_power_cc3          655425479.8348 # total power usage of alu_cc3
resultbus_power_cc3    272162224.6837 # total power usage of resultbus_cc3
clock_power_cc3        1004133000.9136 # total power usage of clock_cc3
avg_rename_power_cc3         0.1830 # avg power usage of rename unit_cc3
avg_bpred_power_cc3          0.2797 # avg power usage of bpred unit_cc3
avg_window_power_cc3         1.9533 # avg power usage of instruction window_cc3
avg_lsq_power_cc3            0.5057 # avg power usage of instruction lsq_cc3
avg_regfile_power_cc3        1.0644 # avg power usage of arch. regfile_cc3
avg_icache_power_cc3         0.8397 # avg power usage of icache_cc3
avg_dcache_power_cc3         1.9797 # avg power usage of dcache_cc3
avg_dcache2_power_cc3        0.3262 # avg power usage of dcache2_cc3
avg_alu_power_cc3            4.3411 # avg power usage of alu_cc3
avg_resultbus_power_cc3       1.8026 # avg power usage of resultbus_cc3
avg_clock_power_cc3          6.6508 # avg power usage of clock_cc3
fetch_stage_power_cc3  169003319.0089 # total power usage of fetch stage_cc3
dispatch_stage_power_cc3 27636290.3832 # total power usage of dispatch stage_cc3
issue_stage_power_cc3  1646982110.3837 # total power usage of issue stage_cc3
avg_fetch_power_cc3          1.1194 # average power of fetch unit per cycle_cc3
avg_dispatch_power_cc3       0.1830 # average power of dispatch unit per cycle_cc3
avg_issue_power_cc3         10.9086 # average power of issue unit per cycle_cc3
total_power_cycle_cc3  3008460945.2122 # total power per cycle_cc3
avg_total_power_cycle_cc3      19.9262 # average total power per cycle_cc3
avg_total_power_insn_cc3      30.0846 # average total power per insn_cc3
total_rename_access       100000002 # total number accesses of rename unit
total_bpred_access                0 # total number accesses of bpred unit
total_window_access       374702814 # total number accesses of instruction window
total_lsq_access           48440165 # total number accesses of load/store queue
total_regfile_access      134874194 # total number accesses of arch. regfile
total_icache_access       126427727 # total number accesses of icache
total_dcache_access        40589298 # total number accesses of dcache
total_dcache2_access        4099408 # total number accesses of dcache2
total_alu_access           99999993 # total number accesses of alu
total_resultbus_access    122265168 # total number accesses of resultbus
avg_rename_access            0.6623 # avg number accesses of rename unit
avg_bpred_access             0.0000 # avg number accesses of bpred unit
avg_window_access            2.4818 # avg number accesses of instruction window
avg_lsq_access               0.3208 # avg number accesses of lsq
avg_regfile_access           0.8933 # avg number accesses of arch. regfile
avg_icache_access            0.8374 # avg number accesses of icache
avg_dcache_access            0.2688 # avg number accesses of dcache
avg_dcache2_access           0.0272 # avg number accesses of dcache2
avg_alu_access               0.6623 # avg number accesses of alu
avg_resultbus_access         0.8098 # avg number accesses of resultbus
max_rename_access                 8 # max number accesses of rename unit
max_bpred_access                  0 # max number accesses of bpred unit
max_window_access                29 # max number accesses of instruction window
max_lsq_access                   10 # max number accesses of load/store queue
max_regfile_access               21 # max number accesses of arch. regfile
max_icache_access                 8 # max number accesses of icache
max_dcache_access                 8 # max number accesses of dcache
max_dcache2_access                8 # max number accesses of dcache2
max_alu_access                    8 # max number accesses of alu
max_resultbus_access             13 # max number accesses of resultbus
max_cycle_power_cc1        102.3310 # maximum cycle power usage of cc1
max_cycle_power_cc2         62.8029 # maximum cycle power usage of cc2
max_cycle_power_cc3         70.0710 # maximum cycle power usage of cc3
sim_invalid_addrs                 0 # total non-speculative bogus addresses seen (debug var)
ld_text_base           0x0120000000 # program text (code) segment base
ld_text_size                 376832 # program text (code) size in bytes
ld_data_base           0x0140000000 # program initialized data segment base
ld_data_size                  70048 # program init'ed `.data' and uninit'ed `.bss' size in bytes
ld_stack_base          0x011ff9b000 # program stack segment base (highest address in stack)
ld_stack_size                 16384 # program initial stack size
ld_prog_entry          0x0120025390 # program entry point (initial PC)
ld_environ_base        0x011ff96460 # program environment base address address
ld_target_big_endian              0 # target executable endian-ness, non-zero if big endian
mem.page_count                 5705 # total number of pages allocated
mem.page_mem                 45640k # total size of memory pages allocated
mem.ptab_misses                5718 # total first level page table misses
mem.ptab_accesses         915170890 # total page table accesses
mem.ptab_miss_rate           0.0000 # first level page table miss rate

