sim-outorder: SimpleScalar/Alpha Tool Set version 3.0 of August, 2003.
Copyright (c) 1994-2003 by Todd M. Austin, Ph.D. and SimpleScalar, LLC.
All Rights Reserved. This version of SimpleScalar is licensed for academic
non-commercial use.  No portion of this work may be used by any commercial
entity, or for any commercial purpose, without the prior written permission
of SimpleScalar, LLC (info@simplescalar.com).


Processor Parameters:
Issue Width: 8
Window Size: 32
Number of Virtual Registers: 32
Number of Physical Registers: 32
Datapath Width: 64
Total Power Consumption: 144.023
Branch Predictor Power Consumption: 2.79653  (1.97%)
 branch target buffer power (W): 2.49493
 local predict power (W): 0.0348099
 global predict power (W): 0.0996078
 chooser power (W): 0.0702439
 RAS power (W): 0.0969383
Rename Logic Power Consumption: 1.12203  (0.79%)
 Instruction Decode Power (W): 0.0319831
 RAT decode_power (W): 0.227029
 RAT wordline_power (W): 0.0802046
 RAT bitline_power (W): 0.731915
 DCL Comparators (W): 0.0509018
Instruction Window Power Consumption: 10.115  (7.12%)
 tagdrive (W): 0.483157
 tagmatch (W): 0.177897
 Selection Logic (W): 0.0590554
 decode_power (W): 0.227029
 wordline_power (W): 0.288569
 bitline_power (W): 8.87931
Load/Store Queue Power Consumption: 3.94434  (2.78%)
 tagdrive (W): 1.48696
 tagmatch (W): 0.429783
 decode_power (W): 0.0355002
 wordline_power (W): 0.0433172
 bitline_power (W): 1.94878
Arch. Register File Power Consumption: 9.39491  (6.62%)
 decode_power (W): 0.227029
 wordline_power (W): 0.288569
 bitline_power (W): 8.87931
Result Bus Power Consumption: 10.7012  (7.53%)
Total Clock Power: 47.0531  (33.1%)
Int ALU Power: 9.32026  (6.56%)
FP ALU Power: 28.5621  (20.1%)
Instruction Cache Power Consumption: 2.76773  (1.95%)
 decode_power (W): 0.151353
 wordline_power (W): 0.180479
 bitline_power (W): 1.42251
 senseamp_power (W): 0.768
 tagarray_power (W): 0.245382
Itlb_power (W): 0.264936 (0.187%)
Data Cache Power Consumption: 11.0709  (7.8%)
 decode_power (W): 0.60541
 wordline_power (W): 0.721917
 bitline_power (W): 5.69006
 senseamp_power (W): 3.072
 tagarray_power (W): 0.981529
Dtlb_power (W): 1.80688 (1.27%)
Level 2 Cache Power Consumption: 3.10298 (2.18%)
 decode_power (W): 0.19487
 wordline_power (W): 0.0430878
 bitline_power (W): 1.77274
 senseamp_power (W): 0.192
 tagarray_power (W): 0.900275
sim: loading EIO file: ../benchmarks/183.equake.spec_ref.eio.gz
sim: command line: ./sim-outorder -config ../configs/current.config ../benchmarks/183.equake.spec_ref.eio.gz 

sim: simulation started @ Mon Nov 23 19:17:55 2015, options follow:

sim-outorder: This simulator implements a very detailed out-of-order issue
superscalar processor with a two-level memory system and speculative
execution support.  This simulator is a performance simulator, tracking the
latency of all pipeline operations.

# -config                     # load configuration from a file
# -dumpconfig                 # dump configuration to a file
# -h                    false # print help message    
# -v                    false # verbose operation     
# -d                    false # enable debug message  
# -i                    false # start in Dlite debugger
-seed                       1 # random number generator seed (0 for timer seed)
# -q                    false # initialize and terminate immediately
# -chkpt               <null> # restore EIO trace execution from <fname>
# -redir:sim     ../results/02_01_double/183.equake.spec_ref.eio.gz.out # redirect simulator output to file (non-interactive only)
# -redir:prog       /dev/null # redirect simulated program output to file
-nice                       0 # simulator scheduling priority
-freq            600000000.0000 # frequency             
-max:inst           100000000 # maximum number of inst's to execute
-fastfwd                    0 # number of insts skipped before timing starts
# -ptrace              <null> # generate pipetrace, i.e., <fname|stdout|stderr> <range>
-fetch:ifqsize              8 # instruction fetch queue size (in insts)
-fetch:mplat                1 # extra branch mis-prediction latency
-fetch:speed                1 # speed of front-end of machine relative to execution core
-bpred                perfect # branch predictor type {nottaken|taken|perfect|bimod|2lev|comb}
-bpred:bimod     2048 # bimodal predictor config (<table size>)
-bpred:2lev      1 256 2 0 # 2-level predictor config (<l1size> <l2size> <hist_size> <xor>)
-bpred:comb      1024 # combining predictor config (<meta_table_size>)
-bpred:ras                  8 # return address stack size (0 for no return stack)
-bpred:btb       512 4 # BTB config (<num_sets> <associativity>)
# -bpred:spec_update       <null> # speculative predictors update in {ID|WB} (default non-spec)
-decode:width               8 # instruction decode B/W (insts/cycle)
-issue:width                8 # instruction issue B/W (insts/cycle)
-issue:inorder          false # run pipeline with in-order issue
-issue:wrongpath         true # issue instructions down wrong execution paths
-commit:width               8 # instruction commit B/W (insts/cycle)
-ruu:size                  32 # register update unit (RUU) size
-lsq:size                  16 # load/store queue (LSQ) size
-cache:dl1       dl1:32:64:8:f # l1 data cache config, i.e., {<config>|none}
-cache:dl1lat               1 # l1 data cache hit latency (in cycles)
-cache:dl2       dl2:256:64:8:f # l2 data cache config, i.e., {<config>|none}
-cache:dl2lat               2 # l2 data cache hit latency (in cycles)
-cache:il1       il1:32:64:8:f # l1 inst cache config, i.e., {<config>|dl1|dl2|none}
-cache:il1lat               1 # l1 instruction cache hit latency (in cycles)
-cache:il2                dl2 # l2 instruction cache config, i.e., {<config>|dl2|none}
-cache:il2lat               2 # l2 instruction cache hit latency (in cycles)
-cache:flush            false # flush caches on system calls
-cache:icompress        false # convert 64-bit inst addresses to 32-bit inst equivalents
-mem:lat         103 1 # memory access latency (<first_chunk> <inter_chunk>)
-mem:width                  8 # memory access bus width (in bytes)
-tlb:itlb        itlb:16:4096:4:l # instruction TLB config, i.e., {<config>|none}
-tlb:dtlb        dtlb:32:4096:4:l # data TLB config, i.e., {<config>|none}
-tlb:lat                   30 # inst/data TLB miss latency (in cycles)
-res:ialu                   8 # total number of integer ALU's available
-res:imult                  2 # total number of integer multiplier/dividers available
-res:memport                4 # total number of memory system ports available (to CPU)
-res:fpalu                  8 # total number of floating point ALU's available
-res:fpmult                 2 # total number of floating point multiplier/dividers available
# -pcstat              <null> # profile stat(s) against text addr's (mult uses ok)
-bugcompat              false # operate in backward-compatible bugs mode (for testing only)

  Pipetrace range arguments are formatted as follows:

    {{@|#}<start>}:{{@|#|+}<end>}

  Both ends of the range are optional, if neither are specified, the entire
  execution is traced.  Ranges that start with a `@' designate an address
  range to be traced, those that start with an `#' designate a cycle count
  range.  All other range values represent an instruction count range.  The
  second argument, if specified with a `+', indicates a value relative
  to the first argument, e.g., 1000:+100 == 1000:1100.  Program symbols may
  be used in all contexts.

    Examples:   -ptrace FOO.trc #0:#1000
                -ptrace BAR.trc @2000:
                -ptrace BLAH.trc :1500
                -ptrace UXXE.trc :
                -ptrace FOOBAR.trc @main:+278

  Branch predictor configuration examples for 2-level predictor:
    Configurations:   N, M, W, X
      N   # entries in first level (# of shift register(s))
      W   width of shift register(s)
      M   # entries in 2nd level (# of counters, or other FSM)
      X   (yes-1/no-0) xor history and address for 2nd level index
    Sample predictors:
      GAg     : 1, W, 2^W, 0
      GAp     : 1, W, M (M > 2^W), 0
      PAg     : N, W, 2^W, 0
      PAp     : N, W, M (M == 2^(N+W)), 0
      gshare  : 1, W, 2^W, 1
  Predictor `comb' combines a bimodal and a 2-level predictor.

  The cache config parameter <config> has the following format:

    <name>:<nsets>:<bsize>:<assoc>:<repl>

    <name>   - name of the cache being defined
    <nsets>  - number of sets in the cache
    <bsize>  - block size of the cache
    <assoc>  - associativity of the cache
    <repl>   - block replacement strategy, 'l'-LRU, 'f'-FIFO, 'r'-random

    Examples:   -cache:dl1 dl1:4096:32:1:l
                -dtlb dtlb:128:4096:32:r

  Cache levels can be unified by pointing a level of the instruction cache
  hierarchy at the data cache hiearchy using the "dl1" and "dl2" cache
  configuration arguments.  Most sensible combinations are supported, e.g.,

    A unified l2 cache (il2 is pointed at dl2):
      -cache:il1 il1:128:64:1:l -cache:il2 dl2
      -cache:dl1 dl1:256:32:1:l -cache:dl2 ul2:1024:64:2:l

    Or, a fully unified cache hierarchy (il1 pointed at dl1):
      -cache:il1 dl1
      -cache:dl1 ul1:256:32:1:l -cache:dl2 ul2:1024:64:2:l



sim: ** starting performance simulation **

sim: ** simulation statistics **
sim_num_insn              100000002 # total number of instructions committed
sim_num_refs               45231619 # total number of loads and stores committed
sim_num_loads              40733803 # total number of loads committed
sim_num_stores         4497816.0000 # total number of stores committed
sim_num_branches            3673861 # total number of branches committed
sim_elapsed_time                221 # total simulation time in seconds
sim_inst_rate           452488.6968 # simulation speed (in insts/sec)
sim_total_insn            100000002 # total number of instructions executed
sim_total_refs             45231619 # total number of loads and stores executed
sim_total_loads            40733803 # total number of loads executed
sim_total_stores       4497816.0000 # total number of stores executed
sim_total_branches          3673861 # total number of branches executed
sim_cycle                 248121996 # total simulation time in cycles
sim_IPC                      0.4030 # instructions per cycle
sim_CPI                      2.4812 # cycles per instruction
sim_exec_BW                  0.4030 # total instructions (mis-spec + committed) per cycle
sim_IPB                     27.2193 # instruction per branch
IFQ_count                1984848461 # cumulative IFQ occupancy
IFQ_fcount                248105710 # cumulative IFQ full count
ifq_occupancy                7.9995 # avg IFQ occupancy (insn's)
ifq_rate                     0.4030 # avg IFQ dispatch rate (insn/cycle)
ifq_latency                 19.8485 # avg IFQ occupant latency (cycle's)
ifq_full                     0.9999 # fraction of time (cycle's) IFQ was full
RUU_count                7362150048 # cumulative RUU occupancy
RUU_fcount                136178442 # cumulative RUU full count
ruu_occupancy               29.6715 # avg RUU occupancy (insn's)
ruu_rate                     0.4030 # avg RUU dispatch rate (insn/cycle)
ruu_latency                 73.6215 # avg RUU occupant latency (cycle's)
ruu_full                     0.5488 # fraction of time (cycle's) RUU was full
LSQ_count                3643939644 # cumulative LSQ occupancy
LSQ_fcount                106998615 # cumulative LSQ full count
lsq_occupancy               14.6861 # avg LSQ occupancy (insn's)
lsq_rate                     0.4030 # avg LSQ dispatch rate (insn/cycle)
lsq_latency                 36.4394 # avg LSQ occupant latency (cycle's)
lsq_full                     0.4312 # fraction of time (cycle's) LSQ was full
sim_slip                11151318170 # total number of slip cycles
avg_sim_slip               111.5132 # the average slip between issue and retirement
il1.accesses              117024821 # total number of accesses
il1.hits                  117024673 # total number of hits
il1.misses                      148 # total number of misses
il1.replacements                  0 # total number of replacements
il1.writebacks                    0 # total number of writebacks
il1.invalidations                 0 # total number of invalidations
il1.miss_rate                0.0000 # miss rate (i.e., misses/ref)
il1.repl_rate                0.0000 # replacement rate (i.e., repls/ref)
il1.wb_rate                  0.0000 # writeback rate (i.e., wrbks/ref)
il1.inv_rate                 0.0000 # invalidation rate (i.e., invs/ref)
dl1.accesses               44100277 # total number of accesses
dl1.hits                   40312429 # total number of hits
dl1.misses                  3787848 # total number of misses
dl1.replacements            3787592 # total number of replacements
dl1.writebacks               428015 # total number of writebacks
dl1.invalidations                 0 # total number of invalidations
dl1.miss_rate                0.0859 # miss rate (i.e., misses/ref)
dl1.repl_rate                0.0859 # replacement rate (i.e., repls/ref)
dl1.wb_rate                  0.0097 # writeback rate (i.e., wrbks/ref)
dl1.inv_rate                 0.0000 # invalidation rate (i.e., invs/ref)
dl2.accesses                4216011 # total number of accesses
dl2.hits                    1388435 # total number of hits
dl2.misses                  2827576 # total number of misses
dl2.replacements            2825528 # total number of replacements
dl2.writebacks               331253 # total number of writebacks
dl2.invalidations                 0 # total number of invalidations
dl2.miss_rate                0.6707 # miss rate (i.e., misses/ref)
dl2.repl_rate                0.6702 # replacement rate (i.e., repls/ref)
dl2.wb_rate                  0.0786 # writeback rate (i.e., wrbks/ref)
dl2.inv_rate                 0.0000 # invalidation rate (i.e., invs/ref)
itlb.accesses             117024821 # total number of accesses
itlb.hits                 117024815 # total number of hits
itlb.misses                       6 # total number of misses
itlb.replacements                 0 # total number of replacements
itlb.writebacks                   0 # total number of writebacks
itlb.invalidations                0 # total number of invalidations
itlb.miss_rate               0.0000 # miss rate (i.e., misses/ref)
itlb.repl_rate               0.0000 # replacement rate (i.e., repls/ref)
itlb.wb_rate                 0.0000 # writeback rate (i.e., wrbks/ref)
itlb.inv_rate                0.0000 # invalidation rate (i.e., invs/ref)
dtlb.accesses              45231614 # total number of accesses
dtlb.hits                  45184605 # total number of hits
dtlb.misses                   47009 # total number of misses
dtlb.replacements             46881 # total number of replacements
dtlb.writebacks                   0 # total number of writebacks
dtlb.invalidations                0 # total number of invalidations
dtlb.miss_rate               0.0010 # miss rate (i.e., misses/ref)
dtlb.repl_rate               0.0010 # replacement rate (i.e., repls/ref)
dtlb.wb_rate                 0.0000 # writeback rate (i.e., wrbks/ref)
dtlb.inv_rate                0.0000 # invalidation rate (i.e., invs/ref)
rename_power           278401017.4640 # total power usage of rename unit
bpred_power            693880064.3872 # total power usage of bpred unit
window_power           2509758071.1715 # total power usage of instruction window
lsq_power              978677430.2451 # total power usage of load/store queue
regfile_power          2331083086.9268 # total power usage of arch. regfile
icache_power           752470690.1085 # total power usage of icache
dcache_power           3195264488.0666 # total power usage of dcache
dcache2_power          769916794.3721 # total power usage of dcache2
alu_power              9399444520.4693 # total power usage of alu
falu_power             7086882760.6137 # total power usage of falu
resultbus_power        2655200159.0823 # total power usage of resultbus
clock_power            11674908770.7955 # total power usage of clock
avg_rename_power             1.1220 # avg power usage of rename unit
avg_bpred_power              2.7965 # avg power usage of bpred unit
avg_window_power            10.1150 # avg power usage of instruction window
avg_lsq_power                3.9443 # avg power usage of lsq
avg_regfile_power            9.3949 # avg power usage of arch. regfile
avg_icache_power             3.0327 # avg power usage of icache
avg_dcache_power            12.8778 # avg power usage of dcache
avg_dcache2_power            3.1030 # avg power usage of dcache2
avg_alu_power               37.8824 # avg power usage of alu
avg_falu_power              28.5621 # avg power usage of falu
avg_resultbus_power         10.7012 # avg power usage of resultbus
avg_clock_power             47.0531 # avg power usage of clock
fetch_stage_power      1446350754.4956 # total power usage of fetch stage
dispatch_stage_power   278401017.4640 # total power usage of dispatch stage
issue_stage_power      19508261463.4069 # total power usage of issue stage
avg_fetch_power              5.8292 # average power of fetch unit per cycle
avg_dispatch_power           1.1220 # average power of dispatch unit per cycle
avg_issue_power             78.6237 # average power of issue unit per cycle
total_power            35239005093.0888 # total power per cycle
avg_total_power_cycle      142.0229 # average total power per cycle
avg_total_power_cycle_nofp_nod2     110.3578 # average total power per cycle
avg_total_power_insn       352.3900 # average total power per insn
avg_total_power_insn_nofp_nod2     273.8220 # average total power per insn
rename_power_cc1       23663487.7698 # total power usage of rename unit_cc1
bpred_power_cc1              0.0000 # total power usage of bpred unit_cc1
window_power_cc1       445593689.8838 # total power usage of instruction window_cc1
lsq_power_cc1          46620393.2170 # total power usage of lsq_cc1
regfile_power_cc1      196065080.0277 # total power usage of arch. regfile_cc1
icache_power_cc1       63958669.4733 # total power usage of icache_cc1
dcache_power_cc1       293891010.3399 # total power usage of dcache_cc1
dcache2_power_cc1      10477363.9777 # total power usage of dcache2_cc1
alu_power_cc1          819515587.3939 # total power usage of alu_cc1
resultbus_power_cc1    420253713.9926 # total power usage of resultbus_cc1
clock_power_cc1        1117378997.8578 # total power usage of clock_cc1
avg_rename_power_cc1         0.0954 # avg power usage of rename unit_cc1
avg_bpred_power_cc1          0.0000 # avg power usage of bpred unit_cc1
avg_window_power_cc1         1.7959 # avg power usage of instruction window_cc1
avg_lsq_power_cc1            0.1879 # avg power usage of lsq_cc1
avg_regfile_power_cc1        0.7902 # avg power usage of arch. regfile_cc1
avg_icache_power_cc1         0.2578 # avg power usage of icache_cc1
avg_dcache_power_cc1         1.1845 # avg power usage of dcache_cc1
avg_dcache2_power_cc1        0.0422 # avg power usage of dcache2_cc1
avg_alu_power_cc1            3.3029 # avg power usage of alu_cc1
avg_resultbus_power_cc1       1.6937 # avg power usage of resultbus_cc1
avg_clock_power_cc1          4.5033 # avg power usage of clock_cc1
fetch_stage_power_cc1  63958669.4733 # total power usage of fetch stage_cc1
dispatch_stage_power_cc1 23663487.7698 # total power usage of dispatch stage_cc1
issue_stage_power_cc1  2036351758.8048 # total power usage of issue stage_cc1
avg_fetch_power_cc1          0.2578 # average power of fetch unit per cycle_cc1
avg_dispatch_power_cc1       0.0954 # average power of dispatch unit per cycle_cc1
avg_issue_power_cc1          8.2071 # average power of issue unit per cycle_cc1
total_power_cycle_cc1  3437417993.9334 # total power per cycle_cc1
avg_total_power_cycle_cc1      13.8537 # average total power per cycle_cc1
avg_total_power_insn_cc1      34.3742 # average total power per insn_cc1
rename_power_cc2       14025410.2950 # total power usage of rename unit_cc2
bpred_power_cc2              0.0000 # total power usage of bpred unit_cc2
window_power_cc2       204487998.2325 # total power usage of instruction window_cc2
lsq_power_cc2          22006146.9125 # total power usage of lsq_cc2
regfile_power_cc2      58063498.9934 # total power usage of arch. regfile_cc2
icache_power_cc2       63958669.4733 # total power usage of icache_cc2
dcache_power_cc2       141978593.9505 # total power usage of dcache_cc2
dcache2_power_cc2      3270546.0512 # total power usage of dcache2_cc2
alu_power_cc2          199529152.7766 # total power usage of alu_cc2
resultbus_power_cc2    171879371.9483 # total power usage of resultbus_cc2
clock_power_cc2        427152194.6508 # total power usage of clock_cc2
avg_rename_power_cc2         0.0565 # avg power usage of rename unit_cc2
avg_bpred_power_cc2          0.0000 # avg power usage of bpred unit_cc2
avg_window_power_cc2         0.8241 # avg power usage of instruction window_cc2
avg_lsq_power_cc2            0.0887 # avg power usage of instruction lsq_cc2
avg_regfile_power_cc2        0.2340 # avg power usage of arch. regfile_cc2
avg_icache_power_cc2         0.2578 # avg power usage of icache_cc2
avg_dcache_power_cc2         0.5722 # avg power usage of dcache_cc2
avg_dcache2_power_cc2        0.0132 # avg power usage of dcache2_cc2
avg_alu_power_cc2            0.8042 # avg power usage of alu_cc2
avg_resultbus_power_cc2       0.6927 # avg power usage of resultbus_cc2
avg_clock_power_cc2          1.7215 # avg power usage of clock_cc2
fetch_stage_power_cc2  63958669.4733 # total power usage of fetch stage_cc2
dispatch_stage_power_cc2 14025410.2950 # total power usage of dispatch stage_cc2
issue_stage_power_cc2  743151809.8716 # total power usage of issue stage_cc2
avg_fetch_power_cc2          0.2578 # average power of fetch unit per cycle_cc2
avg_dispatch_power_cc2       0.0565 # average power of dispatch unit per cycle_cc2
avg_issue_power_cc2          2.9951 # average power of issue unit per cycle_cc2
total_power_cycle_cc2  1306351583.2841 # total power per cycle_cc2
avg_total_power_cycle_cc2       5.2650 # average total power per cycle_cc2
avg_total_power_insn_cc2      13.0635 # average total power per insn_cc2
rename_power_cc3       39499163.3611 # total power usage of rename unit_cc3
bpred_power_cc3        69388006.3413 # total power usage of bpred unit_cc3
window_power_cc3       406948309.9050 # total power usage of instruction window_cc3
lsq_power_cc3          115090459.3496 # total power usage of lsq_cc3
regfile_power_cc3      269210978.9758 # total power usage of arch. regfile_cc3
icache_power_cc3       132809872.1391 # total power usage of icache_cc3
dcache_power_cc3       432121363.0513 # total power usage of dcache_cc3
dcache2_power_cc3      79214677.4320 # total power usage of dcache2_cc3
alu_power_cc3          1057522042.1624 # total power usage of alu_cc3
resultbus_power_cc3    392753914.3654 # total power usage of resultbus_cc3
clock_power_cc3        1478654542.0129 # total power usage of clock_cc3
avg_rename_power_cc3         0.1592 # avg power usage of rename unit_cc3
avg_bpred_power_cc3          0.2797 # avg power usage of bpred unit_cc3
avg_window_power_cc3         1.6401 # avg power usage of instruction window_cc3
avg_lsq_power_cc3            0.4638 # avg power usage of instruction lsq_cc3
avg_regfile_power_cc3        1.0850 # avg power usage of arch. regfile_cc3
avg_icache_power_cc3         0.5353 # avg power usage of icache_cc3
avg_dcache_power_cc3         1.7416 # avg power usage of dcache_cc3
avg_dcache2_power_cc3        0.3193 # avg power usage of dcache2_cc3
avg_alu_power_cc3            4.2621 # avg power usage of alu_cc3
avg_resultbus_power_cc3       1.5829 # avg power usage of resultbus_cc3
avg_clock_power_cc3          5.9594 # avg power usage of clock_cc3
fetch_stage_power_cc3  202197878.4803 # total power usage of fetch stage_cc3
dispatch_stage_power_cc3 39499163.3611 # total power usage of dispatch stage_cc3
issue_stage_power_cc3  2483650766.2657 # total power usage of issue stage_cc3
avg_fetch_power_cc3          0.8149 # average power of fetch unit per cycle_cc3
avg_dispatch_power_cc3       0.1592 # average power of dispatch unit per cycle_cc3
avg_issue_power_cc3         10.0098 # average power of issue unit per cycle_cc3
total_power_cycle_cc3  4473213329.0958 # total power per cycle_cc3
avg_total_power_cycle_cc3      18.0283 # average total power per cycle_cc3
avg_total_power_insn_cc3      44.7321 # average total power per insn_cc3
total_rename_access       100000002 # total number accesses of rename unit
total_bpred_access                0 # total number accesses of bpred unit
total_window_access       408888475 # total number accesses of instruction window
total_lsq_access           46362951 # total number accesses of load/store queue
total_regfile_access      166249322 # total number accesses of arch. regfile
total_icache_access       117024821 # total number accesses of icache
total_dcache_access        44100277 # total number accesses of dcache
total_dcache2_access        4216011 # total number accesses of dcache2
total_alu_access           99999985 # total number accesses of alu
total_resultbus_access    137059918 # total number accesses of resultbus
avg_rename_access            0.4030 # avg number accesses of rename unit
avg_bpred_access             0.0000 # avg number accesses of bpred unit
avg_window_access            1.6479 # avg number accesses of instruction window
avg_lsq_access               0.1869 # avg number accesses of lsq
avg_regfile_access           0.6700 # avg number accesses of arch. regfile
avg_icache_access            0.4716 # avg number accesses of icache
avg_dcache_access            0.1777 # avg number accesses of dcache
avg_dcache2_access           0.0170 # avg number accesses of dcache2
avg_alu_access               0.4030 # avg number accesses of alu
avg_resultbus_access         0.5524 # avg number accesses of resultbus
max_rename_access                 8 # max number accesses of rename unit
max_bpred_access                  0 # max number accesses of bpred unit
max_window_access                31 # max number accesses of instruction window
max_lsq_access                    7 # max number accesses of load/store queue
max_regfile_access               19 # max number accesses of arch. regfile
max_icache_access                 8 # max number accesses of icache
max_dcache_access                 6 # max number accesses of dcache
max_dcache2_access                6 # max number accesses of dcache2
max_alu_access                    8 # max number accesses of alu
max_resultbus_access             11 # max number accesses of resultbus
max_cycle_power_cc1         97.7228 # maximum cycle power usage of cc1
max_cycle_power_cc2         61.3492 # maximum cycle power usage of cc2
max_cycle_power_cc3         66.0325 # maximum cycle power usage of cc3
sim_invalid_addrs                 0 # total non-speculative bogus addresses seen (debug var)
ld_text_base           0x0120000000 # program text (code) segment base
ld_text_size                 253952 # program text (code) size in bytes
ld_data_base           0x0140000000 # program initialized data segment base
ld_data_size                  76704 # program init'ed `.data' and uninit'ed `.bss' size in bytes
ld_stack_base          0x011ff9b000 # program stack segment base (highest address in stack)
ld_stack_size                 16384 # program initial stack size
ld_prog_entry          0x0120013bd4 # program entry point (initial PC)
ld_environ_base        0x011ff967e0 # program environment base address address
ld_target_big_endian              0 # target executable endian-ness, non-zero if big endian
mem.page_count                 6268 # total number of pages allocated
mem.page_mem                 50144k # total size of memory pages allocated
mem.ptab_misses                6274 # total first level page table misses
mem.ptab_accesses        1042102402 # total page table accesses
mem.ptab_miss_rate           0.0000 # first level page table miss rate

