sim-outorder: SimpleScalar/Alpha Tool Set version 3.0 of August, 2003.
Copyright (c) 1994-2003 by Todd M. Austin, Ph.D. and SimpleScalar, LLC.
All Rights Reserved. This version of SimpleScalar is licensed for academic
non-commercial use.  No portion of this work may be used by any commercial
entity, or for any commercial purpose, without the prior written permission
of SimpleScalar, LLC (info@simplescalar.com).


Processor Parameters:
Issue Width: 8
Window Size: 32
Number of Virtual Registers: 32
Number of Physical Registers: 32
Datapath Width: 64
Total Power Consumption: 144.023
Branch Predictor Power Consumption: 2.79653  (1.97%)
 branch target buffer power (W): 2.49493
 local predict power (W): 0.0348099
 global predict power (W): 0.0996078
 chooser power (W): 0.0702439
 RAS power (W): 0.0969383
Rename Logic Power Consumption: 1.12203  (0.79%)
 Instruction Decode Power (W): 0.0319831
 RAT decode_power (W): 0.227029
 RAT wordline_power (W): 0.0802046
 RAT bitline_power (W): 0.731915
 DCL Comparators (W): 0.0509018
Instruction Window Power Consumption: 10.115  (7.12%)
 tagdrive (W): 0.483157
 tagmatch (W): 0.177897
 Selection Logic (W): 0.0590554
 decode_power (W): 0.227029
 wordline_power (W): 0.288569
 bitline_power (W): 8.87931
Load/Store Queue Power Consumption: 3.94434  (2.78%)
 tagdrive (W): 1.48696
 tagmatch (W): 0.429783
 decode_power (W): 0.0355002
 wordline_power (W): 0.0433172
 bitline_power (W): 1.94878
Arch. Register File Power Consumption: 9.39491  (6.62%)
 decode_power (W): 0.227029
 wordline_power (W): 0.288569
 bitline_power (W): 8.87931
Result Bus Power Consumption: 10.7012  (7.53%)
Total Clock Power: 47.0531  (33.1%)
Int ALU Power: 9.32026  (6.56%)
FP ALU Power: 28.5621  (20.1%)
Instruction Cache Power Consumption: 2.76773  (1.95%)
 decode_power (W): 0.151353
 wordline_power (W): 0.180479
 bitline_power (W): 1.42251
 senseamp_power (W): 0.768
 tagarray_power (W): 0.245382
Itlb_power (W): 0.264936 (0.187%)
Data Cache Power Consumption: 11.0709  (7.8%)
 decode_power (W): 0.60541
 wordline_power (W): 0.721917
 bitline_power (W): 5.69006
 senseamp_power (W): 3.072
 tagarray_power (W): 0.981529
Dtlb_power (W): 1.80688 (1.27%)
Level 2 Cache Power Consumption: 3.10298 (2.18%)
 decode_power (W): 0.19487
 wordline_power (W): 0.0430878
 bitline_power (W): 1.77274
 senseamp_power (W): 0.192
 tagarray_power (W): 0.900275
sim: loading EIO file: ../benchmarks/300.twolf.spec_ref.eio.gz
sim: command line: ./sim-outorder -config ../configs/current.config ../benchmarks/300.twolf.spec_ref.eio.gz 

sim: simulation started @ Mon Nov 23 19:17:52 2015, options follow:

sim-outorder: This simulator implements a very detailed out-of-order issue
superscalar processor with a two-level memory system and speculative
execution support.  This simulator is a performance simulator, tracking the
latency of all pipeline operations.

# -config                     # load configuration from a file
# -dumpconfig                 # dump configuration to a file
# -h                    false # print help message    
# -v                    false # verbose operation     
# -d                    false # enable debug message  
# -i                    false # start in Dlite debugger
-seed                       1 # random number generator seed (0 for timer seed)
# -q                    false # initialize and terminate immediately
# -chkpt               <null> # restore EIO trace execution from <fname>
# -redir:sim     ../results/02_01_double/300.twolf.spec_ref.eio.gz.out # redirect simulator output to file (non-interactive only)
# -redir:prog       /dev/null # redirect simulated program output to file
-nice                       0 # simulator scheduling priority
-freq            600000000.0000 # frequency             
-max:inst           100000000 # maximum number of inst's to execute
-fastfwd                    0 # number of insts skipped before timing starts
# -ptrace              <null> # generate pipetrace, i.e., <fname|stdout|stderr> <range>
-fetch:ifqsize              8 # instruction fetch queue size (in insts)
-fetch:mplat                1 # extra branch mis-prediction latency
-fetch:speed                1 # speed of front-end of machine relative to execution core
-bpred                perfect # branch predictor type {nottaken|taken|perfect|bimod|2lev|comb}
-bpred:bimod     2048 # bimodal predictor config (<table size>)
-bpred:2lev      1 256 2 0 # 2-level predictor config (<l1size> <l2size> <hist_size> <xor>)
-bpred:comb      1024 # combining predictor config (<meta_table_size>)
-bpred:ras                  8 # return address stack size (0 for no return stack)
-bpred:btb       512 4 # BTB config (<num_sets> <associativity>)
# -bpred:spec_update       <null> # speculative predictors update in {ID|WB} (default non-spec)
-decode:width               8 # instruction decode B/W (insts/cycle)
-issue:width                8 # instruction issue B/W (insts/cycle)
-issue:inorder          false # run pipeline with in-order issue
-issue:wrongpath         true # issue instructions down wrong execution paths
-commit:width               8 # instruction commit B/W (insts/cycle)
-ruu:size                  32 # register update unit (RUU) size
-lsq:size                  16 # load/store queue (LSQ) size
-cache:dl1       dl1:32:64:8:f # l1 data cache config, i.e., {<config>|none}
-cache:dl1lat               1 # l1 data cache hit latency (in cycles)
-cache:dl2       dl2:256:64:8:f # l2 data cache config, i.e., {<config>|none}
-cache:dl2lat               2 # l2 data cache hit latency (in cycles)
-cache:il1       il1:32:64:8:f # l1 inst cache config, i.e., {<config>|dl1|dl2|none}
-cache:il1lat               1 # l1 instruction cache hit latency (in cycles)
-cache:il2                dl2 # l2 instruction cache config, i.e., {<config>|dl2|none}
-cache:il2lat               2 # l2 instruction cache hit latency (in cycles)
-cache:flush            false # flush caches on system calls
-cache:icompress        false # convert 64-bit inst addresses to 32-bit inst equivalents
-mem:lat         103 1 # memory access latency (<first_chunk> <inter_chunk>)
-mem:width                  8 # memory access bus width (in bytes)
-tlb:itlb        itlb:16:4096:4:l # instruction TLB config, i.e., {<config>|none}
-tlb:dtlb        dtlb:32:4096:4:l # data TLB config, i.e., {<config>|none}
-tlb:lat                   30 # inst/data TLB miss latency (in cycles)
-res:ialu                   8 # total number of integer ALU's available
-res:imult                  2 # total number of integer multiplier/dividers available
-res:memport                4 # total number of memory system ports available (to CPU)
-res:fpalu                  8 # total number of floating point ALU's available
-res:fpmult                 2 # total number of floating point multiplier/dividers available
# -pcstat              <null> # profile stat(s) against text addr's (mult uses ok)
-bugcompat              false # operate in backward-compatible bugs mode (for testing only)

  Pipetrace range arguments are formatted as follows:

    {{@|#}<start>}:{{@|#|+}<end>}

  Both ends of the range are optional, if neither are specified, the entire
  execution is traced.  Ranges that start with a `@' designate an address
  range to be traced, those that start with an `#' designate a cycle count
  range.  All other range values represent an instruction count range.  The
  second argument, if specified with a `+', indicates a value relative
  to the first argument, e.g., 1000:+100 == 1000:1100.  Program symbols may
  be used in all contexts.

    Examples:   -ptrace FOO.trc #0:#1000
                -ptrace BAR.trc @2000:
                -ptrace BLAH.trc :1500
                -ptrace UXXE.trc :
                -ptrace FOOBAR.trc @main:+278

  Branch predictor configuration examples for 2-level predictor:
    Configurations:   N, M, W, X
      N   # entries in first level (# of shift register(s))
      W   width of shift register(s)
      M   # entries in 2nd level (# of counters, or other FSM)
      X   (yes-1/no-0) xor history and address for 2nd level index
    Sample predictors:
      GAg     : 1, W, 2^W, 0
      GAp     : 1, W, M (M > 2^W), 0
      PAg     : N, W, 2^W, 0
      PAp     : N, W, M (M == 2^(N+W)), 0
      gshare  : 1, W, 2^W, 1
  Predictor `comb' combines a bimodal and a 2-level predictor.

  The cache config parameter <config> has the following format:

    <name>:<nsets>:<bsize>:<assoc>:<repl>

    <name>   - name of the cache being defined
    <nsets>  - number of sets in the cache
    <bsize>  - block size of the cache
    <assoc>  - associativity of the cache
    <repl>   - block replacement strategy, 'l'-LRU, 'f'-FIFO, 'r'-random

    Examples:   -cache:dl1 dl1:4096:32:1:l
                -dtlb dtlb:128:4096:32:r

  Cache levels can be unified by pointing a level of the instruction cache
  hierarchy at the data cache hiearchy using the "dl1" and "dl2" cache
  configuration arguments.  Most sensible combinations are supported, e.g.,

    A unified l2 cache (il2 is pointed at dl2):
      -cache:il1 il1:128:64:1:l -cache:il2 dl2
      -cache:dl1 dl1:256:32:1:l -cache:dl2 ul2:1024:64:2:l

    Or, a fully unified cache hierarchy (il1 pointed at dl1):
      -cache:il1 dl1
      -cache:dl1 ul1:256:32:1:l -cache:dl2 ul2:1024:64:2:l



sim: ** starting performance simulation **

sim: ** simulation statistics **
sim_num_insn              100000000 # total number of instructions committed
sim_num_refs               32660933 # total number of loads and stores committed
sim_num_loads              25832932 # total number of loads committed
sim_num_stores         6828001.0000 # total number of stores committed
sim_num_branches           12122719 # total number of branches committed
sim_elapsed_time                154 # total simulation time in seconds
sim_inst_rate           649350.6494 # simulation speed (in insts/sec)
sim_total_insn            100000000 # total number of instructions executed
sim_total_refs             32660933 # total number of loads and stores executed
sim_total_loads            25832932 # total number of loads executed
sim_total_stores       6828001.0000 # total number of stores executed
sim_total_branches         12122719 # total number of branches executed
sim_cycle                 164353809 # total simulation time in cycles
sim_IPC                      0.6084 # instructions per cycle
sim_CPI                      1.6435 # cycles per instruction
sim_exec_BW                  0.6084 # total instructions (mis-spec + committed) per cycle
sim_IPB                      8.2490 # instruction per branch
IFQ_count                1304719467 # cumulative IFQ occupancy
IFQ_fcount                163070623 # cumulative IFQ full count
ifq_occupancy                7.9385 # avg IFQ occupancy (insn's)
ifq_rate                     0.6084 # avg IFQ dispatch rate (insn/cycle)
ifq_latency                 13.0472 # avg IFQ occupant latency (cycle's)
ifq_full                     0.9922 # fraction of time (cycle's) IFQ was full
RUU_count                5072441989 # cumulative RUU occupancy
RUU_fcount                126477574 # cumulative RUU full count
ruu_occupancy               30.8629 # avg RUU occupancy (insn's)
ruu_rate                     0.6084 # avg RUU dispatch rate (insn/cycle)
ruu_latency                 50.7244 # avg RUU occupant latency (cycle's)
ruu_full                     0.7695 # fraction of time (cycle's) RUU was full
LSQ_count                1899159447 # cumulative LSQ occupancy
LSQ_fcount                 34670034 # cumulative LSQ full count
lsq_occupancy               11.5553 # avg LSQ occupancy (insn's)
lsq_rate                     0.6084 # avg LSQ dispatch rate (insn/cycle)
lsq_latency                 18.9916 # avg LSQ occupant latency (cycle's)
lsq_full                     0.2109 # fraction of time (cycle's) LSQ was full
sim_slip                 7104262210 # total number of slip cycles
avg_sim_slip                71.0426 # the average slip between issue and retirement
il1.accesses              130734241 # total number of accesses
il1.hits                  130717562 # total number of hits
il1.misses                    16679 # total number of misses
il1.replacements              16451 # total number of replacements
il1.writebacks                    0 # total number of writebacks
il1.invalidations                 0 # total number of invalidations
il1.miss_rate                0.0001 # miss rate (i.e., misses/ref)
il1.repl_rate                0.0001 # replacement rate (i.e., repls/ref)
il1.wb_rate                  0.0000 # writeback rate (i.e., wrbks/ref)
il1.inv_rate                 0.0000 # invalidation rate (i.e., invs/ref)
dl1.accesses               31855983 # total number of accesses
dl1.hits                   29338886 # total number of hits
dl1.misses                  2517097 # total number of misses
dl1.replacements            2516841 # total number of replacements
dl1.writebacks               854192 # total number of writebacks
dl1.invalidations                 0 # total number of invalidations
dl1.miss_rate                0.0790 # miss rate (i.e., misses/ref)
dl1.repl_rate                0.0790 # replacement rate (i.e., repls/ref)
dl1.wb_rate                  0.0268 # writeback rate (i.e., wrbks/ref)
dl1.inv_rate                 0.0000 # invalidation rate (i.e., invs/ref)
dl2.accesses                3387968 # total number of accesses
dl2.hits                    1532226 # total number of hits
dl2.misses                  1855742 # total number of misses
dl2.replacements            1853694 # total number of replacements
dl2.writebacks               641581 # total number of writebacks
dl2.invalidations                 0 # total number of invalidations
dl2.miss_rate                0.5477 # miss rate (i.e., misses/ref)
dl2.repl_rate                0.5471 # replacement rate (i.e., repls/ref)
dl2.wb_rate                  0.1894 # writeback rate (i.e., wrbks/ref)
dl2.inv_rate                 0.0000 # invalidation rate (i.e., invs/ref)
itlb.accesses             130734241 # total number of accesses
itlb.hits                 130734227 # total number of hits
itlb.misses                      14 # total number of misses
itlb.replacements                 0 # total number of replacements
itlb.writebacks                   0 # total number of writebacks
itlb.invalidations                0 # total number of invalidations
itlb.miss_rate               0.0000 # miss rate (i.e., misses/ref)
itlb.repl_rate               0.0000 # replacement rate (i.e., repls/ref)
itlb.wb_rate                 0.0000 # writeback rate (i.e., wrbks/ref)
itlb.inv_rate                0.0000 # invalidation rate (i.e., invs/ref)
dtlb.accesses              32660928 # total number of accesses
dtlb.hits                  32187337 # total number of hits
dtlb.misses                  473591 # total number of misses
dtlb.replacements            473463 # total number of replacements
dtlb.writebacks                   0 # total number of writebacks
dtlb.invalidations                0 # total number of invalidations
dtlb.miss_rate               0.0145 # miss rate (i.e., misses/ref)
dtlb.repl_rate               0.0145 # replacement rate (i.e., repls/ref)
dtlb.wb_rate                 0.0000 # writeback rate (i.e., wrbks/ref)
dtlb.inv_rate                0.0000 # invalidation rate (i.e., invs/ref)
rename_power           184410364.5112 # total power usage of rename unit
bpred_power            459619997.0930 # total power usage of bpred unit
window_power           1662441480.8071 # total power usage of instruction window
lsq_power              648267250.2775 # total power usage of load/store queue
regfile_power          1544088760.6975 # total power usage of arch. regfile
icache_power           498429909.9866 # total power usage of icache
dcache_power           2116514850.0908 # total power usage of dcache
dcache2_power          509986053.6158 # total power usage of dcache2
alu_power              6226108664.4665 # total power usage of alu
falu_power             4694288271.0807 # total power usage of falu
resultbus_power        1758781034.2495 # total power usage of resultbus
clock_power            7733356001.7580 # total power usage of clock
avg_rename_power             1.1220 # avg power usage of rename unit
avg_bpred_power              2.7965 # avg power usage of bpred unit
avg_window_power            10.1150 # avg power usage of instruction window
avg_lsq_power                3.9443 # avg power usage of lsq
avg_regfile_power            9.3949 # avg power usage of arch. regfile
avg_icache_power             3.0327 # avg power usage of icache
avg_dcache_power            12.8778 # avg power usage of dcache
avg_dcache2_power            3.1030 # avg power usage of dcache2
avg_alu_power               37.8824 # avg power usage of alu
avg_falu_power              28.5621 # avg power usage of falu
avg_resultbus_power         10.7012 # avg power usage of resultbus
avg_clock_power             47.0531 # avg power usage of clock
fetch_stage_power      958049907.0796 # total power usage of fetch stage
dispatch_stage_power   184410364.5112 # total power usage of dispatch stage
issue_stage_power      12922099333.5072 # total power usage of issue stage
avg_fetch_power              5.8292 # average power of fetch unit per cycle
avg_dispatch_power           1.1220 # average power of dispatch unit per cycle
avg_issue_power             78.6237 # average power of issue unit per cycle
total_power            23342004367.5534 # total power per cycle
avg_total_power_cycle      142.0229 # average total power per cycle
avg_total_power_cycle_nofp_nod2     110.3578 # average total power per cycle
avg_total_power_insn       233.4200 # average total power per insn
avg_total_power_insn_nofp_nod2     181.3773 # average total power per insn
rename_power_cc1       30828607.4776 # total power usage of rename unit_cc1
bpred_power_cc1              0.0000 # total power usage of bpred unit_cc1
window_power_cc1       360392313.0343 # total power usage of instruction window_cc1
lsq_power_cc1          39139015.3724 # total power usage of lsq_cc1
regfile_power_cc1      237116417.2296 # total power usage of arch. regfile_cc1
icache_power_cc1       83330400.3538 # total power usage of icache_cc1
dcache_power_cc1       225450733.0667 # total power usage of dcache_cc1
dcache2_power_cc1      7392720.3676 # total power usage of dcache2_cc1
alu_power_cc1          390103947.9347 # total power usage of alu_cc1
resultbus_power_cc1    369855052.9833 # total power usage of resultbus_cc1
clock_power_cc1        887526110.2422 # total power usage of clock_cc1
avg_rename_power_cc1         0.1876 # avg power usage of rename unit_cc1
avg_bpred_power_cc1          0.0000 # avg power usage of bpred unit_cc1
avg_window_power_cc1         2.1928 # avg power usage of instruction window_cc1
avg_lsq_power_cc1            0.2381 # avg power usage of lsq_cc1
avg_regfile_power_cc1        1.4427 # avg power usage of arch. regfile_cc1
avg_icache_power_cc1         0.5070 # avg power usage of icache_cc1
avg_dcache_power_cc1         1.3717 # avg power usage of dcache_cc1
avg_dcache2_power_cc1        0.0450 # avg power usage of dcache2_cc1
avg_alu_power_cc1            2.3736 # avg power usage of alu_cc1
avg_resultbus_power_cc1       2.2504 # avg power usage of resultbus_cc1
avg_clock_power_cc1          5.4001 # avg power usage of clock_cc1
fetch_stage_power_cc1  83330400.3538 # total power usage of fetch stage_cc1
dispatch_stage_power_cc1 30828607.4776 # total power usage of dispatch stage_cc1
issue_stage_power_cc1  1392333782.7590 # total power usage of issue stage_cc1
avg_fetch_power_cc1          0.5070 # average power of fetch unit per cycle_cc1
avg_dispatch_power_cc1       0.1876 # average power of dispatch unit per cycle_cc1
avg_issue_power_cc1          8.4716 # average power of issue unit per cycle_cc1
total_power_cycle_cc1  2631135318.0622 # total power per cycle_cc1
avg_total_power_cycle_cc1      16.0090 # average total power per cycle_cc1
avg_total_power_insn_cc1      26.3114 # average total power per insn_cc1
rename_power_cc2       14025410.0162 # total power usage of rename unit_cc2
bpred_power_cc2              0.0000 # total power usage of bpred unit_cc2
window_power_cc2       182610252.2942 # total power usage of instruction window_cc2
lsq_power_cc2          15748278.8349 # total power usage of lsq_cc2
regfile_power_cc2      45993727.5735 # total power usage of arch. regfile_cc2
icache_power_cc2       83330400.3538 # total power usage of icache_cc2
dcache_power_cc2       102558713.5182 # total power usage of dcache_cc2
dcache2_power_cc2      2628196.5022 # total power usage of dcache2_cc2
alu_power_cc2          128363587.4381 # total power usage of alu_cc2
resultbus_power_cc2    142597757.1496 # total power usage of resultbus_cc2
clock_power_cc2        365498580.3780 # total power usage of clock_cc2
avg_rename_power_cc2         0.0853 # avg power usage of rename unit_cc2
avg_bpred_power_cc2          0.0000 # avg power usage of bpred unit_cc2
avg_window_power_cc2         1.1111 # avg power usage of instruction window_cc2
avg_lsq_power_cc2            0.0958 # avg power usage of instruction lsq_cc2
avg_regfile_power_cc2        0.2798 # avg power usage of arch. regfile_cc2
avg_icache_power_cc2         0.5070 # avg power usage of icache_cc2
avg_dcache_power_cc2         0.6240 # avg power usage of dcache_cc2
avg_dcache2_power_cc2        0.0160 # avg power usage of dcache2_cc2
avg_alu_power_cc2            0.7810 # avg power usage of alu_cc2
avg_resultbus_power_cc2       0.8676 # avg power usage of resultbus_cc2
avg_clock_power_cc2          2.2239 # avg power usage of clock_cc2
fetch_stage_power_cc2  83330400.3538 # total power usage of fetch stage_cc2
dispatch_stage_power_cc2 14025410.0162 # total power usage of dispatch stage_cc2
issue_stage_power_cc2  574506785.7372 # total power usage of issue stage_cc2
avg_fetch_power_cc2          0.5070 # average power of fetch unit per cycle_cc2
avg_dispatch_power_cc2       0.0853 # average power of dispatch unit per cycle_cc2
avg_issue_power_cc2          3.4955 # average power of issue unit per cycle_cc2
total_power_cycle_cc2  1083354904.0587 # total power per cycle_cc2
avg_total_power_cycle_cc2       6.5916 # average total power per cycle_cc2
avg_total_power_insn_cc2      10.8335 # average total power per insn_cc2
rename_power_cc3       29383585.7945 # total power usage of rename unit_cc3
bpred_power_cc3        45961999.8824 # total power usage of bpred unit_cc3
window_power_cc3       309751712.8377 # total power usage of instruction window_cc3
lsq_power_cc3          76511147.0581 # total power usage of lsq_cc3
regfile_power_cc3      174389125.2954 # total power usage of arch. regfile_cc3
icache_power_cc3       124840351.6794 # total power usage of icache_cc3
dcache_power_cc3       291803875.2997 # total power usage of dcache_cc3
dcache2_power_cc3      52887665.2771 # total power usage of dcache2_cc3
alu_power_cc3          711964056.6916 # total power usage of alu_cc3
resultbus_power_cc3    279039188.1692 # total power usage of resultbus_cc3
clock_power_cc3        1046075760.8471 # total power usage of clock_cc3
avg_rename_power_cc3         0.1788 # avg power usage of rename unit_cc3
avg_bpred_power_cc3          0.2797 # avg power usage of bpred unit_cc3
avg_window_power_cc3         1.8847 # avg power usage of instruction window_cc3
avg_lsq_power_cc3            0.4655 # avg power usage of instruction lsq_cc3
avg_regfile_power_cc3        1.0611 # avg power usage of arch. regfile_cc3
avg_icache_power_cc3         0.7596 # avg power usage of icache_cc3
avg_dcache_power_cc3         1.7755 # avg power usage of dcache_cc3
avg_dcache2_power_cc3        0.3218 # avg power usage of dcache2_cc3
avg_alu_power_cc3            4.3319 # avg power usage of alu_cc3
avg_resultbus_power_cc3       1.6978 # avg power usage of resultbus_cc3
avg_clock_power_cc3          6.3648 # avg power usage of clock_cc3
fetch_stage_power_cc3  170802351.5618 # total power usage of fetch stage_cc3
dispatch_stage_power_cc3 29383585.7945 # total power usage of dispatch stage_cc3
issue_stage_power_cc3  1721957645.3334 # total power usage of issue stage_cc3
avg_fetch_power_cc3          1.0392 # average power of fetch unit per cycle_cc3
avg_dispatch_power_cc3       0.1788 # average power of dispatch unit per cycle_cc3
avg_issue_power_cc3         10.4771 # average power of issue unit per cycle_cc3
total_power_cycle_cc3  3142608468.8322 # total power per cycle_cc3
avg_total_power_cycle_cc3      19.1210 # average total power per cycle_cc3
avg_total_power_insn_cc3      31.4261 # average total power per insn_cc3
total_rename_access       100000000 # total number accesses of rename unit
total_bpred_access                0 # total number accesses of bpred unit
total_window_access       360864822 # total number accesses of instruction window
total_lsq_access           33465873 # total number accesses of load/store queue
total_regfile_access      129255042 # total number accesses of arch. regfile
total_icache_access       130734241 # total number accesses of icache
total_dcache_access        31855983 # total number accesses of dcache
total_dcache2_access        3387968 # total number accesses of dcache2
total_alu_access           99999983 # total number accesses of alu
total_resultbus_access    113710195 # total number accesses of resultbus
avg_rename_access            0.6084 # avg number accesses of rename unit
avg_bpred_access             0.0000 # avg number accesses of bpred unit
avg_window_access            2.1957 # avg number accesses of instruction window
avg_lsq_access               0.2036 # avg number accesses of lsq
avg_regfile_access           0.7864 # avg number accesses of arch. regfile
avg_icache_access            0.7954 # avg number accesses of icache
avg_dcache_access            0.1938 # avg number accesses of dcache
avg_dcache2_access           0.0206 # avg number accesses of dcache2
avg_alu_access               0.6084 # avg number accesses of alu
avg_resultbus_access         0.6919 # avg number accesses of resultbus
max_rename_access                 8 # max number accesses of rename unit
max_bpred_access                  0 # max number accesses of bpred unit
max_window_access                32 # max number accesses of instruction window
max_lsq_access                    8 # max number accesses of load/store queue
max_regfile_access               19 # max number accesses of arch. regfile
max_icache_access                 8 # max number accesses of icache
max_dcache_access                 8 # max number accesses of dcache
max_dcache2_access                9 # max number accesses of dcache2
max_alu_access                    8 # max number accesses of alu
max_resultbus_access             15 # max number accesses of resultbus
max_cycle_power_cc1         98.7515 # maximum cycle power usage of cc1
max_cycle_power_cc2         66.8745 # maximum cycle power usage of cc2
max_cycle_power_cc3         74.3536 # maximum cycle power usage of cc3
sim_invalid_addrs                 0 # total non-speculative bogus addresses seen (debug var)
ld_text_base           0x0120000000 # program text (code) segment base
ld_text_size                 450560 # program text (code) size in bytes
ld_data_base           0x0140000000 # program initialized data segment base
ld_data_size                  98512 # program init'ed `.data' and uninit'ed `.bss' size in bytes
ld_stack_base          0x011ff9b000 # program stack segment base (highest address in stack)
ld_stack_size                 16384 # program initial stack size
ld_prog_entry          0x012001c22c # program entry point (initial PC)
ld_environ_base        0x011ff96d50 # program environment base address address
ld_target_big_endian              0 # target executable endian-ness, non-zero if big endian
mem.page_count                  287 # total number of pages allocated
mem.page_mem                  2296k # total size of memory pages allocated
mem.ptab_misses              402650 # total first level page table misses
mem.ptab_accesses         575198592 # total page table accesses
mem.ptab_miss_rate           0.0007 # first level page table miss rate

