sim-outorder: SimpleScalar/Alpha Tool Set version 3.0 of August, 2003.
Copyright (c) 1994-2003 by Todd M. Austin, Ph.D. and SimpleScalar, LLC.
All Rights Reserved. This version of SimpleScalar is licensed for academic
non-commercial use.  No portion of this work may be used by any commercial
entity, or for any commercial purpose, without the prior written permission
of SimpleScalar, LLC (info@simplescalar.com).


Processor Parameters:
Issue Width: 4
Window Size: 16
Number of Virtual Registers: 32
Number of Physical Registers: 16
Datapath Width: 64
Total Power Consumption: 73.6205
Branch Predictor Power Consumption: 3.33649  (4.66%)
 branch target buffer power (W): 2.49493
 local predict power (W): 0.574771
 global predict power (W): 0.0996078
 chooser power (W): 0.0702439
 RAS power (W): 0.0969383
Rename Logic Power Consumption: 0.417965  (0.584%)
 Instruction Decode Power (W): 0.0159915
 RAT decode_power (W): 0.113514
 RAT wordline_power (W): 0.0307815
 RAT bitline_power (W): 0.246771
 DCL Comparators (W): 0.0109075
Instruction Window Power Consumption: 2.20432  (3.08%)
 tagdrive (W): 0.0943488
 tagmatch (W): 0.033695
 Selection Logic (W): 0.0134217
 decode_power (W): 0.0532503
 wordline_power (W): 0.0844643
 bitline_power (W): 1.92514
Load/Store Queue Power Consumption: 0.96318  (1.34%)
 tagdrive (W): 0.457232
 tagmatch (W): 0.100774
 decode_power (W): 0.00799577
 wordline_power (W): 0.0150119
 bitline_power (W): 0.382166
Arch. Register File Power Consumption: 3.57247  (4.99%)
 decode_power (W): 0.113514
 wordline_power (W): 0.0844643
 bitline_power (W): 3.37449
Result Bus Power Consumption: 2.29754  (3.21%)
Total Clock Power: 27.3131  (38.1%)
Int ALU Power: 4.66013  (6.51%)
FP ALU Power: 14.281  (19.9%)
Instruction Cache Power Consumption: 2.76773  (3.86%)
 decode_power (W): 0.151353
 wordline_power (W): 0.180479
 bitline_power (W): 1.42251
 senseamp_power (W): 0.768
 tagarray_power (W): 0.245382
Itlb_power (W): 0.264834 (0.37%)
Data Cache Power Consumption: 5.53546  (7.73%)
 decode_power (W): 0.302705
 wordline_power (W): 0.360958
 bitline_power (W): 2.84503
 senseamp_power (W): 1.536
 tagarray_power (W): 0.490764
Dtlb_power (W): 0.903238 (1.26%)
Level 2 Cache Power Consumption: 3.10298 (4.33%)
 decode_power (W): 0.19487
 wordline_power (W): 0.0430878
 bitline_power (W): 1.77274
 senseamp_power (W): 0.192
 tagarray_power (W): 0.900275
sim: loading EIO file: ../benchmarks/179.art.110-ref.eio.gz
sim: command line: ./sim-outorder -config ../configs/current.config ../benchmarks/179.art.110-ref.eio.gz 

sim: simulation started @ Mon Nov 23 20:24:08 2015, options follow:

sim-outorder: This simulator implements a very detailed out-of-order issue
superscalar processor with a two-level memory system and speculative
execution support.  This simulator is a performance simulator, tracking the
latency of all pipeline operations.

# -config                     # load configuration from a file
# -dumpconfig                 # dump configuration to a file
# -h                    false # print help message    
# -v                    false # verbose operation     
# -d                    false # enable debug message  
# -i                    false # start in Dlite debugger
-seed                       1 # random number generator seed (0 for timer seed)
# -q                    false # initialize and terminate immediately
# -chkpt               <null> # restore EIO trace execution from <fname>
# -redir:sim     ../results/10_04_2lbp/179.art.110-ref.eio.gz.out # redirect simulator output to file (non-interactive only)
# -redir:prog       /dev/null # redirect simulated program output to file
-nice                       0 # simulator scheduling priority
-freq            600000000.0000 # frequency             
-max:inst           100000000 # maximum number of inst's to execute
-fastfwd                    0 # number of insts skipped before timing starts
# -ptrace              <null> # generate pipetrace, i.e., <fname|stdout|stderr> <range>
-fetch:ifqsize              4 # instruction fetch queue size (in insts)
-fetch:mplat                3 # extra branch mis-prediction latency
-fetch:speed                1 # speed of front-end of machine relative to execution core
-bpred                   2lev # branch predictor type {nottaken|taken|perfect|bimod|2lev|comb}
-bpred:bimod     2048 # bimodal predictor config (<table size>)
-bpred:2lev      1 16384 4 0 # 2-level predictor config (<l1size> <l2size> <hist_size> <xor>)
-bpred:comb      1024 # combining predictor config (<meta_table_size>)
-bpred:ras                  8 # return address stack size (0 for no return stack)
-bpred:btb       512 4 # BTB config (<num_sets> <associativity>)
# -bpred:spec_update       <null> # speculative predictors update in {ID|WB} (default non-spec)
-decode:width               4 # instruction decode B/W (insts/cycle)
-issue:width                4 # instruction issue B/W (insts/cycle)
-issue:inorder          false # run pipeline with in-order issue
-issue:wrongpath         true # issue instructions down wrong execution paths
-commit:width               4 # instruction commit B/W (insts/cycle)
-ruu:size                  16 # register update unit (RUU) size
-lsq:size                   8 # load/store queue (LSQ) size
-cache:dl1       dl1:32:64:8:f # l1 data cache config, i.e., {<config>|none}
-cache:dl1lat               1 # l1 data cache hit latency (in cycles)
-cache:dl2       dl2:256:64:8:f # l2 data cache config, i.e., {<config>|none}
-cache:dl2lat               2 # l2 data cache hit latency (in cycles)
-cache:il1       il1:32:64:8:f # l1 inst cache config, i.e., {<config>|dl1|dl2|none}
-cache:il1lat               1 # l1 instruction cache hit latency (in cycles)
-cache:il2                dl2 # l2 instruction cache config, i.e., {<config>|dl2|none}
-cache:il2lat               2 # l2 instruction cache hit latency (in cycles)
-cache:flush            false # flush caches on system calls
-cache:icompress        false # convert 64-bit inst addresses to 32-bit inst equivalents
-mem:lat         103 1 # memory access latency (<first_chunk> <inter_chunk>)
-mem:width                  8 # memory access bus width (in bytes)
-tlb:itlb        itlb:16:4096:4:l # instruction TLB config, i.e., {<config>|none}
-tlb:dtlb        dtlb:32:4096:4:l # data TLB config, i.e., {<config>|none}
-tlb:lat                   30 # inst/data TLB miss latency (in cycles)
-res:ialu                   4 # total number of integer ALU's available
-res:imult                  1 # total number of integer multiplier/dividers available
-res:memport                2 # total number of memory system ports available (to CPU)
-res:fpalu                  4 # total number of floating point ALU's available
-res:fpmult                 1 # total number of floating point multiplier/dividers available
# -pcstat              <null> # profile stat(s) against text addr's (mult uses ok)
-bugcompat              false # operate in backward-compatible bugs mode (for testing only)

  Pipetrace range arguments are formatted as follows:

    {{@|#}<start>}:{{@|#|+}<end>}

  Both ends of the range are optional, if neither are specified, the entire
  execution is traced.  Ranges that start with a `@' designate an address
  range to be traced, those that start with an `#' designate a cycle count
  range.  All other range values represent an instruction count range.  The
  second argument, if specified with a `+', indicates a value relative
  to the first argument, e.g., 1000:+100 == 1000:1100.  Program symbols may
  be used in all contexts.

    Examples:   -ptrace FOO.trc #0:#1000
                -ptrace BAR.trc @2000:
                -ptrace BLAH.trc :1500
                -ptrace UXXE.trc :
                -ptrace FOOBAR.trc @main:+278

  Branch predictor configuration examples for 2-level predictor:
    Configurations:   N, M, W, X
      N   # entries in first level (# of shift register(s))
      W   width of shift register(s)
      M   # entries in 2nd level (# of counters, or other FSM)
      X   (yes-1/no-0) xor history and address for 2nd level index
    Sample predictors:
      GAg     : 1, W, 2^W, 0
      GAp     : 1, W, M (M > 2^W), 0
      PAg     : N, W, 2^W, 0
      PAp     : N, W, M (M == 2^(N+W)), 0
      gshare  : 1, W, 2^W, 1
  Predictor `comb' combines a bimodal and a 2-level predictor.

  The cache config parameter <config> has the following format:

    <name>:<nsets>:<bsize>:<assoc>:<repl>

    <name>   - name of the cache being defined
    <nsets>  - number of sets in the cache
    <bsize>  - block size of the cache
    <assoc>  - associativity of the cache
    <repl>   - block replacement strategy, 'l'-LRU, 'f'-FIFO, 'r'-random

    Examples:   -cache:dl1 dl1:4096:32:1:l
                -dtlb dtlb:128:4096:32:r

  Cache levels can be unified by pointing a level of the instruction cache
  hierarchy at the data cache hiearchy using the "dl1" and "dl2" cache
  configuration arguments.  Most sensible combinations are supported, e.g.,

    A unified l2 cache (il2 is pointed at dl2):
      -cache:il1 il1:128:64:1:l -cache:il2 dl2
      -cache:dl1 dl1:256:32:1:l -cache:dl2 ul2:1024:64:2:l

    Or, a fully unified cache hierarchy (il1 pointed at dl1):
      -cache:il1 dl1
      -cache:dl1 ul1:256:32:1:l -cache:dl2 ul2:1024:64:2:l



sim: ** starting performance simulation **

sim: ** simulation statistics **
sim_num_insn              100000000 # total number of instructions committed
sim_num_refs               32313275 # total number of loads and stores committed
sim_num_loads              24977025 # total number of loads committed
sim_num_stores         7336250.0000 # total number of stores committed
sim_num_branches           14258407 # total number of branches committed
sim_elapsed_time                223 # total simulation time in seconds
sim_inst_rate           448430.4933 # simulation speed (in insts/sec)
sim_total_insn            105232261 # total number of instructions executed
sim_total_refs             32437688 # total number of loads and stores executed
sim_total_loads            25040089 # total number of loads executed
sim_total_stores       7397599.0000 # total number of stores executed
sim_total_branches         15863824 # total number of branches executed
sim_cycle                 459889537 # total simulation time in cycles
sim_IPC                      0.2174 # instructions per cycle
sim_CPI                      4.5989 # cycles per instruction
sim_exec_BW                  0.2288 # total instructions (mis-spec + committed) per cycle
sim_IPB                      7.0134 # instruction per branch
IFQ_count                1815647205 # cumulative IFQ occupancy
IFQ_fcount                450132130 # cumulative IFQ full count
ifq_occupancy                3.9480 # avg IFQ occupancy (insn's)
ifq_rate                     0.2288 # avg IFQ dispatch rate (insn/cycle)
ifq_latency                 17.2537 # avg IFQ occupant latency (cycle's)
ifq_full                     0.9788 # fraction of time (cycle's) IFQ was full
RUU_count                6118906441 # cumulative RUU occupancy
RUU_fcount                153847259 # cumulative RUU full count
ruu_occupancy               13.3052 # avg RUU occupancy (insn's)
ruu_rate                     0.2288 # avg RUU dispatch rate (insn/cycle)
ruu_latency                 58.1467 # avg RUU occupant latency (cycle's)
ruu_full                     0.3345 # fraction of time (cycle's) RUU was full
LSQ_count                2976798753 # cumulative LSQ occupancy
LSQ_fcount                296693166 # cumulative LSQ full count
lsq_occupancy                6.4729 # avg LSQ occupancy (insn's)
lsq_rate                     0.2288 # avg LSQ dispatch rate (insn/cycle)
lsq_latency                 28.2879 # avg LSQ occupant latency (cycle's)
lsq_full                     0.6451 # fraction of time (cycle's) LSQ was full
sim_slip                 9217957266 # total number of slip cycles
avg_sim_slip                92.1796 # the average slip between issue and retirement
bpred_2lev.lookups         16582062 # total number of bpred lookups
bpred_2lev.updates         14258405 # total number of updates
bpred_2lev.addr_hits       13539222 # total number of address-predicted hits
bpred_2lev.dir_hits        13539242 # total number of direction-predicted hits (includes addr-hits)
bpred_2lev.misses            719163 # total number of misses
bpred_2lev.jr_hits               44 # total number of address-predicted hits for JR's
bpred_2lev.jr_seen               45 # total number of JR's seen
bpred_2lev.jr_non_ras_hits.PP            0 # total number of address-predicted hits for non-RAS JR's
bpred_2lev.jr_non_ras_seen.PP            0 # total number of non-RAS JR's seen
bpred_2lev.bpred_addr_rate    0.9496 # branch address-prediction rate (i.e., addr-hits/updates)
bpred_2lev.bpred_dir_rate    0.9496 # branch direction-prediction rate (i.e., all-hits/updates)
bpred_2lev.bpred_jr_rate    0.9778 # JR address-prediction rate (i.e., JR addr-hits/JRs seen)
bpred_2lev.bpred_jr_non_ras_rate.PP <error: divide by zero> # non-RAS JR addr-pred rate (ie, non-RAS JR hits/JRs seen)
bpred_2lev.retstack_pushes           49 # total number of address pushed onto ret-addr stack
bpred_2lev.retstack_pops           45 # total number of address popped off of ret-addr stack
bpred_2lev.used_ras.PP           45 # total number of RAS predictions used
bpred_2lev.ras_hits.PP           44 # total number of RAS hits
bpred_2lev.ras_rate.PP    0.9778 # RAS prediction rate (i.e., RAS hits/used RAS)
il1.accesses              107884987 # total number of accesses
il1.hits                  107884821 # total number of hits
il1.misses                      166 # total number of misses
il1.replacements                  0 # total number of replacements
il1.writebacks                    0 # total number of writebacks
il1.invalidations                 0 # total number of invalidations
il1.miss_rate                0.0000 # miss rate (i.e., misses/ref)
il1.repl_rate                0.0000 # replacement rate (i.e., repls/ref)
il1.wb_rate                  0.0000 # writeback rate (i.e., wrbks/ref)
il1.inv_rate                 0.0000 # invalidation rate (i.e., invs/ref)
dl1.accesses               32087268 # total number of accesses
dl1.hits                   21618895 # total number of hits
dl1.misses                 10468373 # total number of misses
dl1.replacements           10468117 # total number of replacements
dl1.writebacks              3447516 # total number of writebacks
dl1.invalidations                 0 # total number of invalidations
dl1.miss_rate                0.3262 # miss rate (i.e., misses/ref)
dl1.repl_rate                0.3262 # replacement rate (i.e., repls/ref)
dl1.wb_rate                  0.1074 # writeback rate (i.e., wrbks/ref)
dl1.inv_rate                 0.0000 # invalidation rate (i.e., invs/ref)
dl2.accesses               13916055 # total number of accesses
dl2.hits                    3477281 # total number of hits
dl2.misses                 10438774 # total number of misses
dl2.replacements           10436726 # total number of replacements
dl2.writebacks              3424137 # total number of writebacks
dl2.invalidations                 0 # total number of invalidations
dl2.miss_rate                0.7501 # miss rate (i.e., misses/ref)
dl2.repl_rate                0.7500 # replacement rate (i.e., repls/ref)
dl2.wb_rate                  0.2461 # writeback rate (i.e., wrbks/ref)
dl2.inv_rate                 0.0000 # invalidation rate (i.e., invs/ref)
itlb.accesses             107884987 # total number of accesses
itlb.hits                 107884980 # total number of hits
itlb.misses                       7 # total number of misses
itlb.replacements                 0 # total number of replacements
itlb.writebacks                   0 # total number of writebacks
itlb.invalidations                0 # total number of invalidations
itlb.miss_rate               0.0000 # miss rate (i.e., misses/ref)
itlb.repl_rate               0.0000 # replacement rate (i.e., repls/ref)
itlb.wb_rate                 0.0000 # writeback rate (i.e., wrbks/ref)
itlb.inv_rate                0.0000 # invalidation rate (i.e., invs/ref)
dtlb.accesses              32374873 # total number of accesses
dtlb.hits                  32108186 # total number of hits
dtlb.misses                  266687 # total number of misses
dtlb.replacements            266559 # total number of replacements
dtlb.writebacks                   0 # total number of writebacks
dtlb.invalidations                0 # total number of invalidations
dtlb.miss_rate               0.0082 # miss rate (i.e., misses/ref)
dtlb.repl_rate               0.0082 # replacement rate (i.e., repls/ref)
dtlb.wb_rate                 0.0000 # writeback rate (i.e., wrbks/ref)
dtlb.inv_rate                0.0000 # invalidation rate (i.e., invs/ref)
rename_power           192217956.2042 # total power usage of rename unit
bpred_power            1534416151.9559 # total power usage of bpred unit
window_power           1013743449.2093 # total power usage of instruction window
lsq_power              442956400.4472 # total power usage of load/store queue
regfile_power          1642942538.3878 # total power usage of arch. regfile
icache_power           1394644014.8410 # total power usage of icache
dcache_power           2961088820.1135 # total power usage of dcache
dcache2_power          1427026560.8787 # total power usage of dcache2
alu_power              8710848411.2211 # total power usage of alu
falu_power             6567703154.4012 # total power usage of falu
resultbus_power        1056615942.8786 # total power usage of resultbus
clock_power            12561031146.4323 # total power usage of clock
avg_rename_power             0.4180 # avg power usage of rename unit
avg_bpred_power              3.3365 # avg power usage of bpred unit
avg_window_power             2.2043 # avg power usage of instruction window
avg_lsq_power                0.9632 # avg power usage of lsq
avg_regfile_power            3.5725 # avg power usage of arch. regfile
avg_icache_power             3.0326 # avg power usage of icache
avg_dcache_power             6.4387 # avg power usage of dcache
avg_dcache2_power            3.1030 # avg power usage of dcache2
avg_alu_power               18.9412 # avg power usage of alu
avg_falu_power              14.2810 # avg power usage of falu
avg_resultbus_power          2.2975 # avg power usage of resultbus
avg_clock_power             27.3131 # avg power usage of clock
fetch_stage_power      2929060166.7969 # total power usage of fetch stage
dispatch_stage_power   192217956.2042 # total power usage of dispatch stage
issue_stage_power      15612279584.7484 # total power usage of issue stage
avg_fetch_power              6.3691 # average power of fetch unit per cycle
avg_dispatch_power           0.4180 # average power of dispatch unit per cycle
avg_issue_power             33.9479 # average power of issue unit per cycle
total_power            32937531392.5696 # total power per cycle
avg_total_power_cycle       71.6205 # average total power per cycle
avg_total_power_cycle_nofp_nod2      54.2365 # average total power per cycle
avg_total_power_insn       312.9984 # average total power per insn
avg_total_power_insn_nofp_nod2     237.0262 # average total power per insn
rename_power_cc1       16332159.8005 # total power usage of rename unit_cc1
bpred_power_cc1        31917683.2917 # total power usage of bpred unit_cc1
window_power_cc1       156056817.3811 # total power usage of instruction window_cc1
lsq_power_cc1          13500959.2731 # total power usage of lsq_cc1
regfile_power_cc1      139958973.3549 # total power usage of arch. regfile_cc1
icache_power_cc1       121725467.7629 # total power usage of icache_cc1
dcache_power_cc1       156949065.7608 # total power usage of dcache_cc1
dcache2_power_cc1      28672125.9747 # total power usage of dcache2_cc1
alu_power_cc1          417829945.7776 # total power usage of alu_cc1
resultbus_power_cc1    132528675.1915 # total power usage of resultbus_cc1
clock_power_cc1        797592755.9464 # total power usage of clock_cc1
avg_rename_power_cc1         0.0355 # avg power usage of rename unit_cc1
avg_bpred_power_cc1          0.0694 # avg power usage of bpred unit_cc1
avg_window_power_cc1         0.3393 # avg power usage of instruction window_cc1
avg_lsq_power_cc1            0.0294 # avg power usage of lsq_cc1
avg_regfile_power_cc1        0.3043 # avg power usage of arch. regfile_cc1
avg_icache_power_cc1         0.2647 # avg power usage of icache_cc1
avg_dcache_power_cc1         0.3413 # avg power usage of dcache_cc1
avg_dcache2_power_cc1        0.0623 # avg power usage of dcache2_cc1
avg_alu_power_cc1            0.9085 # avg power usage of alu_cc1
avg_resultbus_power_cc1       0.2882 # avg power usage of resultbus_cc1
avg_clock_power_cc1          1.7343 # avg power usage of clock_cc1
fetch_stage_power_cc1  153643151.0546 # total power usage of fetch stage_cc1
dispatch_stage_power_cc1 16332159.8005 # total power usage of dispatch stage_cc1
issue_stage_power_cc1  905537589.3587 # total power usage of issue stage_cc1
avg_fetch_power_cc1          0.3341 # average power of fetch unit per cycle_cc1
avg_dispatch_power_cc1       0.0355 # average power of dispatch unit per cycle_cc1
avg_issue_power_cc1          1.9690 # average power of issue unit per cycle_cc1
total_power_cycle_cc1  2013064629.5151 # total power per cycle_cc1
avg_total_power_cycle_cc1       4.3773 # average total power per cycle_cc1
avg_total_power_insn_cc1      19.1297 # average total power per insn_cc1
rename_power_cc2       10995863.2956 # total power usage of rename unit_cc2
bpred_power_cc2        23786502.2856 # total power usage of bpred unit_cc2
window_power_cc2       87091436.0473 # total power usage of instruction window_cc2
lsq_power_cc2          8374722.5940 # total power usage of lsq_cc2
regfile_power_cc2      47933956.1350 # total power usage of arch. regfile_cc2
icache_power_cc2       121725467.7629 # total power usage of icache_cc2
dcache_power_cc2       103300078.6112 # total power usage of dcache_cc2
dcache2_power_cc2      21590597.7139 # total power usage of dcache2_cc2
alu_power_cc2          166243428.2814 # total power usage of alu_cc2
resultbus_power_cc2    60625501.4972 # total power usage of resultbus_cc2
clock_power_cc2        425933454.4852 # total power usage of clock_cc2
avg_rename_power_cc2         0.0239 # avg power usage of rename unit_cc2
avg_bpred_power_cc2          0.0517 # avg power usage of bpred unit_cc2
avg_window_power_cc2         0.1894 # avg power usage of instruction window_cc2
avg_lsq_power_cc2            0.0182 # avg power usage of instruction lsq_cc2
avg_regfile_power_cc2        0.1042 # avg power usage of arch. regfile_cc2
avg_icache_power_cc2         0.2647 # avg power usage of icache_cc2
avg_dcache_power_cc2         0.2246 # avg power usage of dcache_cc2
avg_dcache2_power_cc2        0.0469 # avg power usage of dcache2_cc2
avg_alu_power_cc2            0.3615 # avg power usage of alu_cc2
avg_resultbus_power_cc2       0.1318 # avg power usage of resultbus_cc2
avg_clock_power_cc2          0.9262 # avg power usage of clock_cc2
fetch_stage_power_cc2  145511970.0484 # total power usage of fetch stage_cc2
dispatch_stage_power_cc2 10995863.2956 # total power usage of dispatch stage_cc2
issue_stage_power_cc2  447225764.7450 # total power usage of issue stage_cc2
avg_fetch_power_cc2          0.3164 # average power of fetch unit per cycle_cc2
avg_dispatch_power_cc2       0.0239 # average power of dispatch unit per cycle_cc2
avg_issue_power_cc2          0.9725 # average power of issue unit per cycle_cc2
total_power_cycle_cc2  1077601008.7093 # total power per cycle_cc2
avg_total_power_cycle_cc2       2.3432 # average total power per cycle_cc2
avg_total_power_insn_cc2      10.2402 # average total power per insn_cc2
rename_power_cc3       28584442.9253 # total power usage of rename unit_cc3
bpred_power_cc3        174036349.8447 # total power usage of bpred unit_cc3
window_power_cc3       171886233.3398 # total power usage of instruction window_cc3
lsq_power_cc3          51296466.1696 # total power usage of lsq_cc3
regfile_power_cc3      196906478.6970 # total power usage of arch. regfile_cc3
icache_power_cc3       249017322.1357 # total power usage of icache_cc3
dcache_power_cc3       383804980.8567 # total power usage of dcache_cc3
dcache2_power_cc3      161514908.9644 # total power usage of dcache2_cc3
alu_power_cc3          995545282.6459 # total power usage of alu_cc3
resultbus_power_cc3    152247441.7904 # total power usage of resultbus_cc3
clock_power_cc3        1600288427.1909 # total power usage of clock_cc3
avg_rename_power_cc3         0.0622 # avg power usage of rename unit_cc3
avg_bpred_power_cc3          0.3784 # avg power usage of bpred unit_cc3
avg_window_power_cc3         0.3738 # avg power usage of instruction window_cc3
avg_lsq_power_cc3            0.1115 # avg power usage of instruction lsq_cc3
avg_regfile_power_cc3        0.4282 # avg power usage of arch. regfile_cc3
avg_icache_power_cc3         0.5415 # avg power usage of icache_cc3
avg_dcache_power_cc3         0.8346 # avg power usage of dcache_cc3
avg_dcache2_power_cc3        0.3512 # avg power usage of dcache2_cc3
avg_alu_power_cc3            2.1647 # avg power usage of alu_cc3
avg_resultbus_power_cc3       0.3311 # avg power usage of resultbus_cc3
avg_clock_power_cc3          3.4797 # avg power usage of clock_cc3
fetch_stage_power_cc3  423053671.9805 # total power usage of fetch stage_cc3
dispatch_stage_power_cc3 28584442.9253 # total power usage of dispatch stage_cc3
issue_stage_power_cc3  1916295313.7668 # total power usage of issue stage_cc3
avg_fetch_power_cc3          0.9199 # average power of fetch unit per cycle_cc3
avg_dispatch_power_cc3       0.0622 # average power of dispatch unit per cycle_cc3
avg_issue_power_cc3          4.1669 # average power of issue unit per cycle_cc3
total_power_cycle_cc3  4165128334.5605 # total power per cycle_cc3
avg_total_power_cycle_cc3       9.0568 # average total power per cycle_cc3
avg_total_power_insn_cc3      39.5803 # average total power per insn_cc3
total_rename_access       105232261 # total number accesses of rename unit
total_bpred_access         14258405 # total number accesses of bpred unit
total_window_access       399954924 # total number accesses of instruction window
total_lsq_access           32662514 # total number accesses of load/store queue
total_regfile_access      176947687 # total number accesses of arch. regfile
total_icache_access       107885049 # total number accesses of icache
total_dcache_access        32087268 # total number accesses of dcache
total_dcache2_access       13916055 # total number accesses of dcache2
total_alu_access          102191794 # total number accesses of alu
total_resultbus_access    112584974 # total number accesses of resultbus
avg_rename_access            0.2288 # avg number accesses of rename unit
avg_bpred_access             0.0310 # avg number accesses of bpred unit
avg_window_access            0.8697 # avg number accesses of instruction window
avg_lsq_access               0.0710 # avg number accesses of lsq
avg_regfile_access           0.3848 # avg number accesses of arch. regfile
avg_icache_access            0.2346 # avg number accesses of icache
avg_dcache_access            0.0698 # avg number accesses of dcache
avg_dcache2_access           0.0303 # avg number accesses of dcache2
avg_alu_access               0.2222 # avg number accesses of alu
avg_resultbus_access         0.2448 # avg number accesses of resultbus
max_rename_access                 4 # max number accesses of rename unit
max_bpred_access                  2 # max number accesses of bpred unit
max_window_access                17 # max number accesses of instruction window
max_lsq_access                    5 # max number accesses of load/store queue
max_regfile_access               12 # max number accesses of arch. regfile
max_icache_access                 4 # max number accesses of icache
max_dcache_access                 4 # max number accesses of dcache
max_dcache2_access                5 # max number accesses of dcache2
max_alu_access                    4 # max number accesses of alu
max_resultbus_access              8 # max number accesses of resultbus
max_cycle_power_cc1         46.1742 # maximum cycle power usage of cc1
max_cycle_power_cc2         31.0154 # maximum cycle power usage of cc2
max_cycle_power_cc3         34.3574 # maximum cycle power usage of cc3
sim_invalid_addrs                 0 # total non-speculative bogus addresses seen (debug var)
ld_text_base           0x0120000000 # program text (code) segment base
ld_text_size                 237568 # program text (code) size in bytes
ld_data_base           0x0140000000 # program initialized data segment base
ld_data_size                  76672 # program init'ed `.data' and uninit'ed `.bss' size in bytes
ld_stack_base          0x011ff9b000 # program stack segment base (highest address in stack)
ld_stack_size                 16384 # program initial stack size
ld_prog_entry          0x012000fb10 # program entry point (initial PC)
ld_environ_base        0x011ff96ea0 # program environment base address address
ld_target_big_endian              0 # target executable endian-ness, non-zero if big endian
mem.page_count                  498 # total number of pages allocated
mem.page_mem                  3984k # total size of memory pages allocated
mem.ptab_misses                 584 # total first level page table misses
mem.ptab_accesses         689910366 # total page table accesses
mem.ptab_miss_rate           0.0000 # first level page table miss rate

