sim-outorder: SimpleScalar/Alpha Tool Set version 3.0 of August, 2003.
Copyright (c) 1994-2003 by Todd M. Austin, Ph.D. and SimpleScalar, LLC.
All Rights Reserved. This version of SimpleScalar is licensed for academic
non-commercial use.  No portion of this work may be used by any commercial
entity, or for any commercial purpose, without the prior written permission
of SimpleScalar, LLC (info@simplescalar.com).


Processor Parameters:
Issue Width: 4
Window Size: 16
Number of Virtual Registers: 32
Number of Physical Registers: 16
Datapath Width: 64
Total Power Consumption: 73.6205
Branch Predictor Power Consumption: 3.33649  (4.66%)
 branch target buffer power (W): 2.49493
 local predict power (W): 0.574771
 global predict power (W): 0.0996078
 chooser power (W): 0.0702439
 RAS power (W): 0.0969383
Rename Logic Power Consumption: 0.417965  (0.584%)
 Instruction Decode Power (W): 0.0159915
 RAT decode_power (W): 0.113514
 RAT wordline_power (W): 0.0307815
 RAT bitline_power (W): 0.246771
 DCL Comparators (W): 0.0109075
Instruction Window Power Consumption: 2.20432  (3.08%)
 tagdrive (W): 0.0943488
 tagmatch (W): 0.033695
 Selection Logic (W): 0.0134217
 decode_power (W): 0.0532503
 wordline_power (W): 0.0844643
 bitline_power (W): 1.92514
Load/Store Queue Power Consumption: 0.96318  (1.34%)
 tagdrive (W): 0.457232
 tagmatch (W): 0.100774
 decode_power (W): 0.00799577
 wordline_power (W): 0.0150119
 bitline_power (W): 0.382166
Arch. Register File Power Consumption: 3.57247  (4.99%)
 decode_power (W): 0.113514
 wordline_power (W): 0.0844643
 bitline_power (W): 3.37449
Result Bus Power Consumption: 2.29754  (3.21%)
Total Clock Power: 27.3131  (38.1%)
Int ALU Power: 4.66013  (6.51%)
FP ALU Power: 14.281  (19.9%)
Instruction Cache Power Consumption: 2.76773  (3.86%)
 decode_power (W): 0.151353
 wordline_power (W): 0.180479
 bitline_power (W): 1.42251
 senseamp_power (W): 0.768
 tagarray_power (W): 0.245382
Itlb_power (W): 0.264834 (0.37%)
Data Cache Power Consumption: 5.53546  (7.73%)
 decode_power (W): 0.302705
 wordline_power (W): 0.360958
 bitline_power (W): 2.84503
 senseamp_power (W): 1.536
 tagarray_power (W): 0.490764
Dtlb_power (W): 0.903238 (1.26%)
Level 2 Cache Power Consumption: 3.10298 (4.33%)
 decode_power (W): 0.19487
 wordline_power (W): 0.0430878
 bitline_power (W): 1.77274
 senseamp_power (W): 0.192
 tagarray_power (W): 0.900275
sim: loading EIO file: ../benchmarks/255.vortex.three-ref.eio.gz
sim: command line: ./sim-outorder -config ../configs/current.config ../benchmarks/255.vortex.three-ref.eio.gz 

sim: simulation started @ Mon Nov 23 20:24:12 2015, options follow:

sim-outorder: This simulator implements a very detailed out-of-order issue
superscalar processor with a two-level memory system and speculative
execution support.  This simulator is a performance simulator, tracking the
latency of all pipeline operations.

# -config                     # load configuration from a file
# -dumpconfig                 # dump configuration to a file
# -h                    false # print help message    
# -v                    false # verbose operation     
# -d                    false # enable debug message  
# -i                    false # start in Dlite debugger
-seed                       1 # random number generator seed (0 for timer seed)
# -q                    false # initialize and terminate immediately
# -chkpt               <null> # restore EIO trace execution from <fname>
# -redir:sim     ../results/10_04_2lbp/255.vortex.three-ref.eio.gz.out # redirect simulator output to file (non-interactive only)
# -redir:prog       /dev/null # redirect simulated program output to file
-nice                       0 # simulator scheduling priority
-freq            600000000.0000 # frequency             
-max:inst           100000000 # maximum number of inst's to execute
-fastfwd                    0 # number of insts skipped before timing starts
# -ptrace              <null> # generate pipetrace, i.e., <fname|stdout|stderr> <range>
-fetch:ifqsize              4 # instruction fetch queue size (in insts)
-fetch:mplat                3 # extra branch mis-prediction latency
-fetch:speed                1 # speed of front-end of machine relative to execution core
-bpred                   2lev # branch predictor type {nottaken|taken|perfect|bimod|2lev|comb}
-bpred:bimod     2048 # bimodal predictor config (<table size>)
-bpred:2lev      1 16384 4 0 # 2-level predictor config (<l1size> <l2size> <hist_size> <xor>)
-bpred:comb      1024 # combining predictor config (<meta_table_size>)
-bpred:ras                  8 # return address stack size (0 for no return stack)
-bpred:btb       512 4 # BTB config (<num_sets> <associativity>)
# -bpred:spec_update       <null> # speculative predictors update in {ID|WB} (default non-spec)
-decode:width               4 # instruction decode B/W (insts/cycle)
-issue:width                4 # instruction issue B/W (insts/cycle)
-issue:inorder          false # run pipeline with in-order issue
-issue:wrongpath         true # issue instructions down wrong execution paths
-commit:width               4 # instruction commit B/W (insts/cycle)
-ruu:size                  16 # register update unit (RUU) size
-lsq:size                   8 # load/store queue (LSQ) size
-cache:dl1       dl1:32:64:8:f # l1 data cache config, i.e., {<config>|none}
-cache:dl1lat               1 # l1 data cache hit latency (in cycles)
-cache:dl2       dl2:256:64:8:f # l2 data cache config, i.e., {<config>|none}
-cache:dl2lat               2 # l2 data cache hit latency (in cycles)
-cache:il1       il1:32:64:8:f # l1 inst cache config, i.e., {<config>|dl1|dl2|none}
-cache:il1lat               1 # l1 instruction cache hit latency (in cycles)
-cache:il2                dl2 # l2 instruction cache config, i.e., {<config>|dl2|none}
-cache:il2lat               2 # l2 instruction cache hit latency (in cycles)
-cache:flush            false # flush caches on system calls
-cache:icompress        false # convert 64-bit inst addresses to 32-bit inst equivalents
-mem:lat         103 1 # memory access latency (<first_chunk> <inter_chunk>)
-mem:width                  8 # memory access bus width (in bytes)
-tlb:itlb        itlb:16:4096:4:l # instruction TLB config, i.e., {<config>|none}
-tlb:dtlb        dtlb:32:4096:4:l # data TLB config, i.e., {<config>|none}
-tlb:lat                   30 # inst/data TLB miss latency (in cycles)
-res:ialu                   4 # total number of integer ALU's available
-res:imult                  1 # total number of integer multiplier/dividers available
-res:memport                2 # total number of memory system ports available (to CPU)
-res:fpalu                  4 # total number of floating point ALU's available
-res:fpmult                 1 # total number of floating point multiplier/dividers available
# -pcstat              <null> # profile stat(s) against text addr's (mult uses ok)
-bugcompat              false # operate in backward-compatible bugs mode (for testing only)

  Pipetrace range arguments are formatted as follows:

    {{@|#}<start>}:{{@|#|+}<end>}

  Both ends of the range are optional, if neither are specified, the entire
  execution is traced.  Ranges that start with a `@' designate an address
  range to be traced, those that start with an `#' designate a cycle count
  range.  All other range values represent an instruction count range.  The
  second argument, if specified with a `+', indicates a value relative
  to the first argument, e.g., 1000:+100 == 1000:1100.  Program symbols may
  be used in all contexts.

    Examples:   -ptrace FOO.trc #0:#1000
                -ptrace BAR.trc @2000:
                -ptrace BLAH.trc :1500
                -ptrace UXXE.trc :
                -ptrace FOOBAR.trc @main:+278

  Branch predictor configuration examples for 2-level predictor:
    Configurations:   N, M, W, X
      N   # entries in first level (# of shift register(s))
      W   width of shift register(s)
      M   # entries in 2nd level (# of counters, or other FSM)
      X   (yes-1/no-0) xor history and address for 2nd level index
    Sample predictors:
      GAg     : 1, W, 2^W, 0
      GAp     : 1, W, M (M > 2^W), 0
      PAg     : N, W, 2^W, 0
      PAp     : N, W, M (M == 2^(N+W)), 0
      gshare  : 1, W, 2^W, 1
  Predictor `comb' combines a bimodal and a 2-level predictor.

  The cache config parameter <config> has the following format:

    <name>:<nsets>:<bsize>:<assoc>:<repl>

    <name>   - name of the cache being defined
    <nsets>  - number of sets in the cache
    <bsize>  - block size of the cache
    <assoc>  - associativity of the cache
    <repl>   - block replacement strategy, 'l'-LRU, 'f'-FIFO, 'r'-random

    Examples:   -cache:dl1 dl1:4096:32:1:l
                -dtlb dtlb:128:4096:32:r

  Cache levels can be unified by pointing a level of the instruction cache
  hierarchy at the data cache hiearchy using the "dl1" and "dl2" cache
  configuration arguments.  Most sensible combinations are supported, e.g.,

    A unified l2 cache (il2 is pointed at dl2):
      -cache:il1 il1:128:64:1:l -cache:il2 dl2
      -cache:dl1 dl1:256:32:1:l -cache:dl2 ul2:1024:64:2:l

    Or, a fully unified cache hierarchy (il1 pointed at dl1):
      -cache:il1 dl1
      -cache:dl1 ul1:256:32:1:l -cache:dl2 ul2:1024:64:2:l



sim: ** starting performance simulation **

sim: ** simulation statistics **
sim_num_insn              100000000 # total number of instructions committed
sim_num_refs               44791263 # total number of loads and stores committed
sim_num_loads              27919556 # total number of loads committed
sim_num_stores         16871707.0000 # total number of stores committed
sim_num_branches           15797761 # total number of branches committed
sim_elapsed_time                126 # total simulation time in seconds
sim_inst_rate           793650.7937 # simulation speed (in insts/sec)
sim_total_insn            101207986 # total number of instructions executed
sim_total_refs             45317790 # total number of loads and stores executed
sim_total_loads            28282103 # total number of loads executed
sim_total_stores       17035687.0000 # total number of stores executed
sim_total_branches         15962999 # total number of branches executed
sim_cycle                 116784708 # total simulation time in cycles
sim_IPC                      0.8563 # instructions per cycle
sim_CPI                      1.1678 # cycles per instruction
sim_exec_BW                  0.8666 # total instructions (mis-spec + committed) per cycle
sim_IPB                      6.3300 # instruction per branch
IFQ_count                 279503920 # cumulative IFQ occupancy
IFQ_fcount                 66307255 # cumulative IFQ full count
ifq_occupancy                2.3933 # avg IFQ occupancy (insn's)
ifq_rate                     0.8666 # avg IFQ dispatch rate (insn/cycle)
ifq_latency                  2.7617 # avg IFQ occupant latency (cycle's)
ifq_full                     0.5678 # fraction of time (cycle's) IFQ was full
RUU_count                1068868268 # cumulative RUU occupancy
RUU_fcount                 33282371 # cumulative RUU full count
ruu_occupancy                9.1525 # avg RUU occupancy (insn's)
ruu_rate                     0.8666 # avg RUU dispatch rate (insn/cycle)
ruu_latency                 10.5611 # avg RUU occupant latency (cycle's)
ruu_full                     0.2850 # fraction of time (cycle's) RUU was full
LSQ_count                 481928504 # cumulative LSQ occupancy
LSQ_fcount                 28598421 # cumulative LSQ full count
lsq_occupancy                4.1266 # avg LSQ occupancy (insn's)
lsq_rate                     0.8666 # avg LSQ dispatch rate (insn/cycle)
lsq_latency                  4.7618 # avg LSQ occupant latency (cycle's)
lsq_full                     0.2449 # fraction of time (cycle's) LSQ was full
sim_slip                 1683527188 # total number of slip cycles
avg_sim_slip                16.8353 # the average slip between issue and retirement
bpred_2lev.lookups         16058108 # total number of bpred lookups
bpred_2lev.updates         15797759 # total number of updates
bpred_2lev.addr_hits       15478178 # total number of address-predicted hits
bpred_2lev.dir_hits        15580657 # total number of direction-predicted hits (includes addr-hits)
bpred_2lev.misses            217102 # total number of misses
bpred_2lev.jr_hits          1919140 # total number of address-predicted hits for JR's
bpred_2lev.jr_seen          1959575 # total number of JR's seen
bpred_2lev.jr_non_ras_hits.PP        22420 # total number of address-predicted hits for non-RAS JR's
bpred_2lev.jr_non_ras_seen.PP        25256 # total number of non-RAS JR's seen
bpred_2lev.bpred_addr_rate    0.9798 # branch address-prediction rate (i.e., addr-hits/updates)
bpred_2lev.bpred_dir_rate    0.9863 # branch direction-prediction rate (i.e., all-hits/updates)
bpred_2lev.bpred_jr_rate    0.9794 # JR address-prediction rate (i.e., JR addr-hits/JRs seen)
bpred_2lev.bpred_jr_non_ras_rate.PP    0.8877 # non-RAS JR addr-pred rate (ie, non-RAS JR hits/JRs seen)
bpred_2lev.retstack_pushes      1984246 # total number of address pushed onto ret-addr stack
bpred_2lev.retstack_pops      1961954 # total number of address popped off of ret-addr stack
bpred_2lev.used_ras.PP      1934319 # total number of RAS predictions used
bpred_2lev.ras_hits.PP      1896720 # total number of RAS hits
bpred_2lev.ras_rate.PP    0.9806 # RAS prediction rate (i.e., RAS hits/used RAS)
il1.accesses              103943207 # total number of accesses
il1.hits                  101821061 # total number of hits
il1.misses                  2122146 # total number of misses
il1.replacements            2121890 # total number of replacements
il1.writebacks                    0 # total number of writebacks
il1.invalidations                 0 # total number of invalidations
il1.miss_rate                0.0204 # miss rate (i.e., misses/ref)
il1.repl_rate                0.0204 # replacement rate (i.e., repls/ref)
il1.wb_rate                  0.0000 # writeback rate (i.e., wrbks/ref)
il1.inv_rate                 0.0000 # invalidation rate (i.e., invs/ref)
dl1.accesses               44446230 # total number of accesses
dl1.hits                   43362786 # total number of hits
dl1.misses                  1083444 # total number of misses
dl1.replacements            1083188 # total number of replacements
dl1.writebacks               293866 # total number of writebacks
dl1.invalidations                 0 # total number of invalidations
dl1.miss_rate                0.0244 # miss rate (i.e., misses/ref)
dl1.repl_rate                0.0244 # replacement rate (i.e., repls/ref)
dl1.wb_rate                  0.0066 # writeback rate (i.e., wrbks/ref)
dl1.inv_rate                 0.0000 # invalidation rate (i.e., invs/ref)
dl2.accesses                3499456 # total number of accesses
dl2.hits                    2738511 # total number of hits
dl2.misses                   760945 # total number of misses
dl2.replacements             758897 # total number of replacements
dl2.writebacks               137927 # total number of writebacks
dl2.invalidations                 0 # total number of invalidations
dl2.miss_rate                0.2174 # miss rate (i.e., misses/ref)
dl2.repl_rate                0.2169 # replacement rate (i.e., repls/ref)
dl2.wb_rate                  0.0394 # writeback rate (i.e., wrbks/ref)
dl2.inv_rate                 0.0000 # invalidation rate (i.e., invs/ref)
itlb.accesses             103943207 # total number of accesses
itlb.hits                 103890317 # total number of hits
itlb.misses                   52890 # total number of misses
itlb.replacements             52827 # total number of replacements
itlb.writebacks                   0 # total number of writebacks
itlb.invalidations                0 # total number of invalidations
itlb.miss_rate               0.0005 # miss rate (i.e., misses/ref)
itlb.repl_rate               0.0005 # replacement rate (i.e., repls/ref)
itlb.wb_rate                 0.0000 # writeback rate (i.e., wrbks/ref)
itlb.inv_rate                0.0000 # invalidation rate (i.e., invs/ref)
dtlb.accesses              44869522 # total number of accesses
dtlb.hits                  44620458 # total number of hits
dtlb.misses                  249064 # total number of misses
dtlb.replacements            248936 # total number of replacements
dtlb.writebacks                   0 # total number of writebacks
dtlb.invalidations                0 # total number of invalidations
dtlb.miss_rate               0.0056 # miss rate (i.e., misses/ref)
dtlb.repl_rate               0.0055 # replacement rate (i.e., repls/ref)
dtlb.wb_rate                 0.0000 # writeback rate (i.e., wrbks/ref)
dtlb.inv_rate                0.0000 # invalidation rate (i.e., invs/ref)
rename_power           48811977.3129 # total power usage of rename unit
bpred_power            389650838.1041 # total power usage of bpred unit
window_power           257430799.5200 # total power usage of instruction window
lsq_power              112484693.8357 # total power usage of load/store queue
regfile_power          417210110.9576 # total power usage of arch. regfile
icache_power           354156990.5093 # total power usage of icache
dcache_power           751941207.4735 # total power usage of dcache
dcache2_power          362380236.8630 # total power usage of dcache2
alu_power              2212039643.6790 # total power usage of alu
falu_power             1667807665.4515 # total power usage of falu
resultbus_power        268317875.8466 # total power usage of resultbus
clock_power            3189758020.6857 # total power usage of clock
avg_rename_power             0.4180 # avg power usage of rename unit
avg_bpred_power              3.3365 # avg power usage of bpred unit
avg_window_power             2.2043 # avg power usage of instruction window
avg_lsq_power                0.9632 # avg power usage of lsq
avg_regfile_power            3.5725 # avg power usage of arch. regfile
avg_icache_power             3.0326 # avg power usage of icache
avg_dcache_power             6.4387 # avg power usage of dcache
avg_dcache2_power            3.1030 # avg power usage of dcache2
avg_alu_power               18.9412 # avg power usage of alu
avg_falu_power              14.2810 # avg power usage of falu
avg_resultbus_power          2.2975 # avg power usage of resultbus
avg_clock_power             27.3131 # avg power usage of clock
fetch_stage_power      743807828.6134 # total power usage of fetch stage
dispatch_stage_power   48811977.3129 # total power usage of dispatch stage
issue_stage_power      3964594457.2178 # total power usage of issue stage
avg_fetch_power              6.3691 # average power of fetch unit per cycle
avg_dispatch_power           0.4180 # average power of dispatch unit per cycle
avg_issue_power             33.9479 # average power of issue unit per cycle
total_power            8364182394.7875 # total power per cycle
avg_total_power_cycle       71.6205 # average total power per cycle
avg_total_power_cycle_nofp_nod2      54.2365 # average total power per cycle
avg_total_power_insn        82.6435 # average total power per insn
avg_total_power_insn_nofp_nod2      62.5839 # average total power per insn
rename_power_cc1       14871204.4924 # total power usage of rename unit_cc1
bpred_power_cc1        40610857.4089 # total power usage of bpred unit_cc1
window_power_cc1       101145202.9382 # total power usage of instruction window_cc1
lsq_power_cc1          16210753.2777 # total power usage of lsq_cc1
regfile_power_cc1      126868582.0383 # total power usage of arch. regfile_cc1
icache_power_cc1       113173042.5173 # total power usage of icache_cc1
dcache_power_cc1       189661535.7671 # total power usage of dcache_cc1
dcache2_power_cc1      9745776.6954 # total power usage of dcache2_cc1
alu_power_cc1          193380952.4572 # total power usage of alu_cc1
resultbus_power_cc1    92159865.6735 # total power usage of resultbus_cc1
clock_power_cc1        585790490.7124 # total power usage of clock_cc1
avg_rename_power_cc1         0.1273 # avg power usage of rename unit_cc1
avg_bpred_power_cc1          0.3477 # avg power usage of bpred unit_cc1
avg_window_power_cc1         0.8661 # avg power usage of instruction window_cc1
avg_lsq_power_cc1            0.1388 # avg power usage of lsq_cc1
avg_regfile_power_cc1        1.0863 # avg power usage of arch. regfile_cc1
avg_icache_power_cc1         0.9691 # avg power usage of icache_cc1
avg_dcache_power_cc1         1.6240 # avg power usage of dcache_cc1
avg_dcache2_power_cc1        0.0835 # avg power usage of dcache2_cc1
avg_alu_power_cc1            1.6559 # avg power usage of alu_cc1
avg_resultbus_power_cc1       0.7891 # avg power usage of resultbus_cc1
avg_clock_power_cc1          5.0160 # avg power usage of clock_cc1
fetch_stage_power_cc1  153783899.9261 # total power usage of fetch stage_cc1
dispatch_stage_power_cc1 14871204.4924 # total power usage of dispatch stage_cc1
issue_stage_power_cc1  602304086.8091 # total power usage of issue stage_cc1
avg_fetch_power_cc1          1.3168 # average power of fetch unit per cycle_cc1
avg_dispatch_power_cc1       0.1273 # average power of dispatch unit per cycle_cc1
avg_issue_power_cc1          5.1574 # average power of issue unit per cycle_cc1
total_power_cycle_cc1  1483618263.9784 # total power per cycle_cc1
avg_total_power_cycle_cc1      12.7039 # average total power per cycle_cc1
avg_total_power_insn_cc1      14.6591 # average total power per insn_cc1
rename_power_cc2       10575361.2810 # total power usage of rename unit_cc2
bpred_power_cc2        26354520.7564 # total power usage of bpred unit_cc2
window_power_cc2       85184038.9786 # total power usage of instruction window_cc2
lsq_power_cc2          11000108.0551 # total power usage of lsq_cc2
regfile_power_cc2      37641928.7914 # total power usage of arch. regfile_cc2
icache_power_cc2       113173042.5173 # total power usage of icache_cc2
dcache_power_cc2       143087876.8792 # total power usage of dcache_cc2
dcache2_power_cc2      5429365.3417 # total power usage of dcache2_cc2
alu_power_cc2          117457779.0316 # total power usage of alu_cc2
resultbus_power_cc2    60591928.9991 # total power usage of resultbus_cc2
clock_power_cc2        399069914.6641 # total power usage of clock_cc2
avg_rename_power_cc2         0.0906 # avg power usage of rename unit_cc2
avg_bpred_power_cc2          0.2257 # avg power usage of bpred unit_cc2
avg_window_power_cc2         0.7294 # avg power usage of instruction window_cc2
avg_lsq_power_cc2            0.0942 # avg power usage of instruction lsq_cc2
avg_regfile_power_cc2        0.3223 # avg power usage of arch. regfile_cc2
avg_icache_power_cc2         0.9691 # avg power usage of icache_cc2
avg_dcache_power_cc2         1.2252 # avg power usage of dcache_cc2
avg_dcache2_power_cc2        0.0465 # avg power usage of dcache2_cc2
avg_alu_power_cc2            1.0058 # avg power usage of alu_cc2
avg_resultbus_power_cc2       0.5188 # avg power usage of resultbus_cc2
avg_clock_power_cc2          3.4171 # avg power usage of clock_cc2
fetch_stage_power_cc2  139527563.2737 # total power usage of fetch stage_cc2
dispatch_stage_power_cc2 10575361.2810 # total power usage of dispatch stage_cc2
issue_stage_power_cc2  422751097.2852 # total power usage of issue stage_cc2
avg_fetch_power_cc2          1.1947 # average power of fetch unit per cycle_cc2
avg_dispatch_power_cc2       0.0906 # average power of dispatch unit per cycle_cc2
avg_issue_power_cc2          3.6199 # average power of issue unit per cycle_cc2
total_power_cycle_cc2  1009565865.2954 # total power per cycle_cc2
avg_total_power_cycle_cc2       8.6447 # average total power per cycle_cc2
avg_total_power_insn_cc2       9.9752 # average total power per insn_cc2
rename_power_cc3       13969438.5434 # total power usage of rename unit_cc3
bpred_power_cc3        61264033.7019 # total power usage of bpred unit_cc3
window_power_cc3       100708607.2093 # total power usage of instruction window_cc3
lsq_power_cc3          20619095.9770 # total power usage of lsq_cc3
regfile_power_cc3      65118674.1785 # total power usage of arch. regfile_cc3
icache_power_cc3       137271437.2478 # total power usage of icache_cc3
dcache_power_cc3       200247472.1607 # total power usage of dcache_cc3
dcache2_power_cc3      40697154.4174 # total power usage of dcache2_cc3
alu_power_cc3          319323647.3220 # total power usage of alu_cc3
resultbus_power_cc3    77600456.3805 # total power usage of resultbus_cc3
clock_power_cc3        658583079.6756 # total power usage of clock_cc3
avg_rename_power_cc3         0.1196 # avg power usage of rename unit_cc3
avg_bpred_power_cc3          0.5246 # avg power usage of bpred unit_cc3
avg_window_power_cc3         0.8623 # avg power usage of instruction window_cc3
avg_lsq_power_cc3            0.1766 # avg power usage of instruction lsq_cc3
avg_regfile_power_cc3        0.5576 # avg power usage of arch. regfile_cc3
avg_icache_power_cc3         1.1754 # avg power usage of icache_cc3
avg_dcache_power_cc3         1.7147 # avg power usage of dcache_cc3
avg_dcache2_power_cc3        0.3485 # avg power usage of dcache2_cc3
avg_alu_power_cc3            2.7343 # avg power usage of alu_cc3
avg_resultbus_power_cc3       0.6645 # avg power usage of resultbus_cc3
avg_clock_power_cc3          5.6393 # avg power usage of clock_cc3
fetch_stage_power_cc3  198535470.9497 # total power usage of fetch stage_cc3
dispatch_stage_power_cc3 13969438.5434 # total power usage of dispatch stage_cc3
issue_stage_power_cc3  759196433.4668 # total power usage of issue stage_cc3
avg_fetch_power_cc3          1.7000 # average power of fetch unit per cycle_cc3
avg_dispatch_power_cc3       0.1196 # average power of dispatch unit per cycle_cc3
avg_issue_power_cc3          6.5008 # average power of issue unit per cycle_cc3
total_power_cycle_cc3  1695403096.8139 # total power per cycle_cc3
avg_total_power_cycle_cc3      14.5173 # average total power per cycle_cc3
avg_total_power_insn_cc3      16.7517 # average total power per insn_cc3
total_rename_access       101207986 # total number accesses of rename unit
total_bpred_access         15797759 # total number accesses of bpred unit
total_window_access       403350763 # total number accesses of instruction window
total_lsq_access           45333598 # total number accesses of load/store queue
total_regfile_access      143090058 # total number accesses of arch. regfile
total_icache_access       104017188 # total number accesses of icache
total_dcache_access        44446230 # total number accesses of dcache
total_dcache2_access        3499456 # total number accesses of dcache2
total_alu_access          100132088 # total number accesses of alu
total_resultbus_access    112522628 # total number accesses of resultbus
avg_rename_access            0.8666 # avg number accesses of rename unit
avg_bpred_access             0.1353 # avg number accesses of bpred unit
avg_window_access            3.4538 # avg number accesses of instruction window
avg_lsq_access               0.3882 # avg number accesses of lsq
avg_regfile_access           1.2252 # avg number accesses of arch. regfile
avg_icache_access            0.8907 # avg number accesses of icache
avg_dcache_access            0.3806 # avg number accesses of dcache
avg_dcache2_access           0.0300 # avg number accesses of dcache2
avg_alu_access               0.8574 # avg number accesses of alu
avg_resultbus_access         0.9635 # avg number accesses of resultbus
max_rename_access                 4 # max number accesses of rename unit
max_bpred_access                  4 # max number accesses of bpred unit
max_window_access                17 # max number accesses of instruction window
max_lsq_access                    5 # max number accesses of load/store queue
max_regfile_access               12 # max number accesses of arch. regfile
max_icache_access                 4 # max number accesses of icache
max_dcache_access                 4 # max number accesses of dcache
max_dcache2_access                5 # max number accesses of dcache2
max_alu_access                    4 # max number accesses of alu
max_resultbus_access              7 # max number accesses of resultbus
max_cycle_power_cc1         46.0832 # maximum cycle power usage of cc1
max_cycle_power_cc2         31.6925 # maximum cycle power usage of cc2
max_cycle_power_cc3         35.3804 # maximum cycle power usage of cc3
sim_invalid_addrs                 0 # total non-speculative bogus addresses seen (debug var)
ld_text_base           0x0120000000 # program text (code) segment base
ld_text_size                 819200 # program text (code) size in bytes
ld_data_base           0x0140000000 # program initialized data segment base
ld_data_size                 118976 # program init'ed `.data' and uninit'ed `.bss' size in bytes
ld_stack_base          0x011ff9b000 # program stack segment base (highest address in stack)
ld_stack_size                 16384 # program initial stack size
ld_prog_entry          0x012005fcd0 # program entry point (initial PC)
ld_environ_base        0x011ff95d20 # program environment base address address
ld_target_big_endian              0 # target executable endian-ness, non-zero if big endian
mem.page_count                 8034 # total number of pages allocated
mem.page_mem                 64272k # total size of memory pages allocated
mem.ptab_misses               19428 # total first level page table misses
mem.ptab_accesses         915263626 # total page table accesses
mem.ptab_miss_rate           0.0000 # first level page table miss rate

