sim-outorder: SimpleScalar/Alpha Tool Set version 3.0 of August, 2003.
Copyright (c) 1994-2003 by Todd M. Austin, Ph.D. and SimpleScalar, LLC.
All Rights Reserved. This version of SimpleScalar is licensed for academic
non-commercial use.  No portion of this work may be used by any commercial
entity, or for any commercial purpose, without the prior written permission
of SimpleScalar, LLC (info@simplescalar.com).


Processor Parameters:
Issue Width: 4
Window Size: 16
Number of Virtual Registers: 32
Number of Physical Registers: 16
Datapath Width: 64
Total Power Consumption: 73.6205
Branch Predictor Power Consumption: 3.33649  (4.66%)
 branch target buffer power (W): 2.49493
 local predict power (W): 0.574771
 global predict power (W): 0.0996078
 chooser power (W): 0.0702439
 RAS power (W): 0.0969383
Rename Logic Power Consumption: 0.417965  (0.584%)
 Instruction Decode Power (W): 0.0159915
 RAT decode_power (W): 0.113514
 RAT wordline_power (W): 0.0307815
 RAT bitline_power (W): 0.246771
 DCL Comparators (W): 0.0109075
Instruction Window Power Consumption: 2.20432  (3.08%)
 tagdrive (W): 0.0943488
 tagmatch (W): 0.033695
 Selection Logic (W): 0.0134217
 decode_power (W): 0.0532503
 wordline_power (W): 0.0844643
 bitline_power (W): 1.92514
Load/Store Queue Power Consumption: 0.96318  (1.34%)
 tagdrive (W): 0.457232
 tagmatch (W): 0.100774
 decode_power (W): 0.00799577
 wordline_power (W): 0.0150119
 bitline_power (W): 0.382166
Arch. Register File Power Consumption: 3.57247  (4.99%)
 decode_power (W): 0.113514
 wordline_power (W): 0.0844643
 bitline_power (W): 3.37449
Result Bus Power Consumption: 2.29754  (3.21%)
Total Clock Power: 27.3131  (38.1%)
Int ALU Power: 4.66013  (6.51%)
FP ALU Power: 14.281  (19.9%)
Instruction Cache Power Consumption: 2.76773  (3.86%)
 decode_power (W): 0.151353
 wordline_power (W): 0.180479
 bitline_power (W): 1.42251
 senseamp_power (W): 0.768
 tagarray_power (W): 0.245382
Itlb_power (W): 0.264834 (0.37%)
Data Cache Power Consumption: 5.53546  (7.73%)
 decode_power (W): 0.302705
 wordline_power (W): 0.360958
 bitline_power (W): 2.84503
 senseamp_power (W): 1.536
 tagarray_power (W): 0.490764
Dtlb_power (W): 0.903238 (1.26%)
Level 2 Cache Power Consumption: 3.10298 (4.33%)
 decode_power (W): 0.19487
 wordline_power (W): 0.0430878
 bitline_power (W): 1.77274
 senseamp_power (W): 0.192
 tagarray_power (W): 0.900275
sim: loading EIO file: ../benchmarks/256.bzip2.program-ref.eio.gz
sim: command line: ./sim-outorder -config ../configs/current.config ../benchmarks/256.bzip2.program-ref.eio.gz 

sim: simulation started @ Mon Nov 23 20:24:20 2015, options follow:

sim-outorder: This simulator implements a very detailed out-of-order issue
superscalar processor with a two-level memory system and speculative
execution support.  This simulator is a performance simulator, tracking the
latency of all pipeline operations.

# -config                     # load configuration from a file
# -dumpconfig                 # dump configuration to a file
# -h                    false # print help message    
# -v                    false # verbose operation     
# -d                    false # enable debug message  
# -i                    false # start in Dlite debugger
-seed                       1 # random number generator seed (0 for timer seed)
# -q                    false # initialize and terminate immediately
# -chkpt               <null> # restore EIO trace execution from <fname>
# -redir:sim     ../results/10_04_2lbp/256.bzip2.program-ref.eio.gz.out # redirect simulator output to file (non-interactive only)
# -redir:prog       /dev/null # redirect simulated program output to file
-nice                       0 # simulator scheduling priority
-freq            600000000.0000 # frequency             
-max:inst           100000000 # maximum number of inst's to execute
-fastfwd                    0 # number of insts skipped before timing starts
# -ptrace              <null> # generate pipetrace, i.e., <fname|stdout|stderr> <range>
-fetch:ifqsize              4 # instruction fetch queue size (in insts)
-fetch:mplat                3 # extra branch mis-prediction latency
-fetch:speed                1 # speed of front-end of machine relative to execution core
-bpred                   2lev # branch predictor type {nottaken|taken|perfect|bimod|2lev|comb}
-bpred:bimod     2048 # bimodal predictor config (<table size>)
-bpred:2lev      1 16384 4 0 # 2-level predictor config (<l1size> <l2size> <hist_size> <xor>)
-bpred:comb      1024 # combining predictor config (<meta_table_size>)
-bpred:ras                  8 # return address stack size (0 for no return stack)
-bpred:btb       512 4 # BTB config (<num_sets> <associativity>)
# -bpred:spec_update       <null> # speculative predictors update in {ID|WB} (default non-spec)
-decode:width               4 # instruction decode B/W (insts/cycle)
-issue:width                4 # instruction issue B/W (insts/cycle)
-issue:inorder          false # run pipeline with in-order issue
-issue:wrongpath         true # issue instructions down wrong execution paths
-commit:width               4 # instruction commit B/W (insts/cycle)
-ruu:size                  16 # register update unit (RUU) size
-lsq:size                   8 # load/store queue (LSQ) size
-cache:dl1       dl1:32:64:8:f # l1 data cache config, i.e., {<config>|none}
-cache:dl1lat               1 # l1 data cache hit latency (in cycles)
-cache:dl2       dl2:256:64:8:f # l2 data cache config, i.e., {<config>|none}
-cache:dl2lat               2 # l2 data cache hit latency (in cycles)
-cache:il1       il1:32:64:8:f # l1 inst cache config, i.e., {<config>|dl1|dl2|none}
-cache:il1lat               1 # l1 instruction cache hit latency (in cycles)
-cache:il2                dl2 # l2 instruction cache config, i.e., {<config>|dl2|none}
-cache:il2lat               2 # l2 instruction cache hit latency (in cycles)
-cache:flush            false # flush caches on system calls
-cache:icompress        false # convert 64-bit inst addresses to 32-bit inst equivalents
-mem:lat         103 1 # memory access latency (<first_chunk> <inter_chunk>)
-mem:width                  8 # memory access bus width (in bytes)
-tlb:itlb        itlb:16:4096:4:l # instruction TLB config, i.e., {<config>|none}
-tlb:dtlb        dtlb:32:4096:4:l # data TLB config, i.e., {<config>|none}
-tlb:lat                   30 # inst/data TLB miss latency (in cycles)
-res:ialu                   4 # total number of integer ALU's available
-res:imult                  1 # total number of integer multiplier/dividers available
-res:memport                2 # total number of memory system ports available (to CPU)
-res:fpalu                  4 # total number of floating point ALU's available
-res:fpmult                 1 # total number of floating point multiplier/dividers available
# -pcstat              <null> # profile stat(s) against text addr's (mult uses ok)
-bugcompat              false # operate in backward-compatible bugs mode (for testing only)

  Pipetrace range arguments are formatted as follows:

    {{@|#}<start>}:{{@|#|+}<end>}

  Both ends of the range are optional, if neither are specified, the entire
  execution is traced.  Ranges that start with a `@' designate an address
  range to be traced, those that start with an `#' designate a cycle count
  range.  All other range values represent an instruction count range.  The
  second argument, if specified with a `+', indicates a value relative
  to the first argument, e.g., 1000:+100 == 1000:1100.  Program symbols may
  be used in all contexts.

    Examples:   -ptrace FOO.trc #0:#1000
                -ptrace BAR.trc @2000:
                -ptrace BLAH.trc :1500
                -ptrace UXXE.trc :
                -ptrace FOOBAR.trc @main:+278

  Branch predictor configuration examples for 2-level predictor:
    Configurations:   N, M, W, X
      N   # entries in first level (# of shift register(s))
      W   width of shift register(s)
      M   # entries in 2nd level (# of counters, or other FSM)
      X   (yes-1/no-0) xor history and address for 2nd level index
    Sample predictors:
      GAg     : 1, W, 2^W, 0
      GAp     : 1, W, M (M > 2^W), 0
      PAg     : N, W, 2^W, 0
      PAp     : N, W, M (M == 2^(N+W)), 0
      gshare  : 1, W, 2^W, 1
  Predictor `comb' combines a bimodal and a 2-level predictor.

  The cache config parameter <config> has the following format:

    <name>:<nsets>:<bsize>:<assoc>:<repl>

    <name>   - name of the cache being defined
    <nsets>  - number of sets in the cache
    <bsize>  - block size of the cache
    <assoc>  - associativity of the cache
    <repl>   - block replacement strategy, 'l'-LRU, 'f'-FIFO, 'r'-random

    Examples:   -cache:dl1 dl1:4096:32:1:l
                -dtlb dtlb:128:4096:32:r

  Cache levels can be unified by pointing a level of the instruction cache
  hierarchy at the data cache hiearchy using the "dl1" and "dl2" cache
  configuration arguments.  Most sensible combinations are supported, e.g.,

    A unified l2 cache (il2 is pointed at dl2):
      -cache:il1 il1:128:64:1:l -cache:il2 dl2
      -cache:dl1 dl1:256:32:1:l -cache:dl2 ul2:1024:64:2:l

    Or, a fully unified cache hierarchy (il1 pointed at dl1):
      -cache:il1 dl1
      -cache:dl1 ul1:256:32:1:l -cache:dl2 ul2:1024:64:2:l



sim: ** starting performance simulation **

sim: ** simulation statistics **
sim_num_insn              100000002 # total number of instructions committed
sim_num_refs               38174849 # total number of loads and stores committed
sim_num_loads              26517388 # total number of loads committed
sim_num_stores         11657461.0000 # total number of stores committed
sim_num_branches           10608449 # total number of branches committed
sim_elapsed_time                 99 # total simulation time in seconds
sim_inst_rate          1010101.0303 # simulation speed (in insts/sec)
sim_total_insn            105289817 # total number of instructions executed
sim_total_refs             40375766 # total number of loads and stores executed
sim_total_loads            28119160 # total number of loads executed
sim_total_stores       12256606.0000 # total number of stores executed
sim_total_branches         11190272 # total number of branches executed
sim_cycle                  61410040 # total simulation time in cycles
sim_IPC                      1.6284 # instructions per cycle
sim_CPI                      0.6141 # cycles per instruction
sim_exec_BW                  1.7145 # total instructions (mis-spec + committed) per cycle
sim_IPB                      9.4264 # instruction per branch
IFQ_count                 229102842 # cumulative IFQ occupancy
IFQ_fcount                 54710249 # cumulative IFQ full count
ifq_occupancy                3.7307 # avg IFQ occupancy (insn's)
ifq_rate                     1.7145 # avg IFQ dispatch rate (insn/cycle)
ifq_latency                  2.1759 # avg IFQ occupant latency (cycle's)
ifq_full                     0.8909 # fraction of time (cycle's) IFQ was full
RUU_count                 878274520 # cumulative RUU occupancy
RUU_fcount                 37274806 # cumulative RUU full count
ruu_occupancy               14.3018 # avg RUU occupancy (insn's)
ruu_rate                     1.7145 # avg RUU dispatch rate (insn/cycle)
ruu_latency                  8.3415 # avg RUU occupant latency (cycle's)
ruu_full                     0.6070 # fraction of time (cycle's) RUU was full
LSQ_count                 369391344 # cumulative LSQ occupancy
LSQ_fcount                 15123216 # cumulative LSQ full count
lsq_occupancy                6.0152 # avg LSQ occupancy (insn's)
lsq_rate                     1.7145 # avg LSQ dispatch rate (insn/cycle)
lsq_latency                  3.5083 # avg LSQ occupant latency (cycle's)
lsq_full                     0.2463 # fraction of time (cycle's) LSQ was full
sim_slip                 1298854400 # total number of slip cycles
avg_sim_slip                12.9885 # the average slip between issue and retirement
bpred_2lev.lookups         11399049 # total number of bpred lookups
bpred_2lev.updates         10608448 # total number of updates
bpred_2lev.addr_hits       10057385 # total number of address-predicted hits
bpred_2lev.dir_hits        10057444 # total number of direction-predicted hits (includes addr-hits)
bpred_2lev.misses            551004 # total number of misses
bpred_2lev.jr_hits           419276 # total number of address-predicted hits for JR's
bpred_2lev.jr_seen           419277 # total number of JR's seen
bpred_2lev.jr_non_ras_hits.PP            0 # total number of address-predicted hits for non-RAS JR's
bpred_2lev.jr_non_ras_seen.PP            0 # total number of non-RAS JR's seen
bpred_2lev.bpred_addr_rate    0.9481 # branch address-prediction rate (i.e., addr-hits/updates)
bpred_2lev.bpred_dir_rate    0.9481 # branch direction-prediction rate (i.e., all-hits/updates)
bpred_2lev.bpred_jr_rate    1.0000 # JR address-prediction rate (i.e., JR addr-hits/JRs seen)
bpred_2lev.bpred_jr_non_ras_rate.PP <error: divide by zero> # non-RAS JR addr-pred rate (ie, non-RAS JR hits/JRs seen)
bpred_2lev.retstack_pushes       469908 # total number of address pushed onto ret-addr stack
bpred_2lev.retstack_pops       419286 # total number of address popped off of ret-addr stack
bpred_2lev.used_ras.PP       419277 # total number of RAS predictions used
bpred_2lev.ras_hits.PP       419276 # total number of RAS hits
bpred_2lev.ras_rate.PP    1.0000 # RAS prediction rate (i.e., RAS hits/used RAS)
il1.accesses              107369507 # total number of accesses
il1.hits                  107369382 # total number of hits
il1.misses                      125 # total number of misses
il1.replacements                  0 # total number of replacements
il1.writebacks                    0 # total number of writebacks
il1.invalidations                 0 # total number of invalidations
il1.miss_rate                0.0000 # miss rate (i.e., misses/ref)
il1.repl_rate                0.0000 # replacement rate (i.e., repls/ref)
il1.wb_rate                  0.0000 # writeback rate (i.e., wrbks/ref)
il1.inv_rate                 0.0000 # invalidation rate (i.e., invs/ref)
dl1.accesses               38913479 # total number of accesses
dl1.hits                   38583269 # total number of hits
dl1.misses                   330210 # total number of misses
dl1.replacements             329954 # total number of replacements
dl1.writebacks                40600 # total number of writebacks
dl1.invalidations                 0 # total number of invalidations
dl1.miss_rate                0.0085 # miss rate (i.e., misses/ref)
dl1.repl_rate                0.0085 # replacement rate (i.e., repls/ref)
dl1.wb_rate                  0.0010 # writeback rate (i.e., wrbks/ref)
dl1.inv_rate                 0.0000 # invalidation rate (i.e., invs/ref)
dl2.accesses                 370935 # total number of accesses
dl2.hits                     176814 # total number of hits
dl2.misses                   194121 # total number of misses
dl2.replacements             192073 # total number of replacements
dl2.writebacks                12662 # total number of writebacks
dl2.invalidations                 0 # total number of invalidations
dl2.miss_rate                0.5233 # miss rate (i.e., misses/ref)
dl2.repl_rate                0.5178 # replacement rate (i.e., repls/ref)
dl2.wb_rate                  0.0341 # writeback rate (i.e., wrbks/ref)
dl2.inv_rate                 0.0000 # invalidation rate (i.e., invs/ref)
itlb.accesses             107369507 # total number of accesses
itlb.hits                 107369500 # total number of hits
itlb.misses                       7 # total number of misses
itlb.replacements                 0 # total number of replacements
itlb.writebacks                   0 # total number of writebacks
itlb.invalidations                0 # total number of invalidations
itlb.miss_rate               0.0000 # miss rate (i.e., misses/ref)
itlb.repl_rate               0.0000 # replacement rate (i.e., repls/ref)
itlb.wb_rate                 0.0000 # writeback rate (i.e., wrbks/ref)
itlb.inv_rate                0.0000 # invalidation rate (i.e., invs/ref)
dtlb.accesses              38926747 # total number of accesses
dtlb.hits                  38924882 # total number of hits
dtlb.misses                    1865 # total number of misses
dtlb.replacements              1737 # total number of replacements
dtlb.writebacks                   0 # total number of writebacks
dtlb.invalidations                0 # total number of invalidations
dtlb.miss_rate               0.0000 # miss rate (i.e., misses/ref)
dtlb.repl_rate               0.0000 # replacement rate (i.e., repls/ref)
dtlb.wb_rate                 0.0000 # writeback rate (i.e., wrbks/ref)
dtlb.inv_rate                0.0000 # invalidation rate (i.e., invs/ref)
rename_power           25667277.2545 # total power usage of rename unit
bpred_power            204893893.2098 # total power usage of bpred unit
window_power           135367343.6113 # total power usage of instruction window
lsq_power              59148921.6293 # total power usage of load/store queue
regfile_power          219385654.7307 # total power usage of arch. regfile
icache_power           186229818.6862 # total power usage of icache
dcache_power           395400565.8387 # total power usage of dcache
dcache2_power          190553927.5541 # total power usage of dcache2
alu_power              1163178341.0066 # total power usage of alu
falu_power             876999542.0972 # total power usage of falu
resultbus_power        141092200.5518 # total power usage of resultbus
clock_power            1677301516.9493 # total power usage of clock
avg_rename_power             0.4180 # avg power usage of rename unit
avg_bpred_power              3.3365 # avg power usage of bpred unit
avg_window_power             2.2043 # avg power usage of instruction window
avg_lsq_power                0.9632 # avg power usage of lsq
avg_regfile_power            3.5725 # avg power usage of arch. regfile
avg_icache_power             3.0326 # avg power usage of icache
avg_dcache_power             6.4387 # avg power usage of dcache
avg_dcache2_power            3.1030 # avg power usage of dcache2
avg_alu_power               18.9412 # avg power usage of alu
avg_falu_power              14.2810 # avg power usage of falu
avg_resultbus_power          2.2975 # avg power usage of resultbus
avg_clock_power             27.3131 # avg power usage of clock
fetch_stage_power      391123711.8960 # total power usage of fetch stage
dispatch_stage_power   25667277.2545 # total power usage of dispatch stage
issue_stage_power      2084741300.1918 # total power usage of issue stage
avg_fetch_power              6.3691 # average power of fetch unit per cycle
avg_dispatch_power           0.4180 # average power of dispatch unit per cycle
avg_issue_power             33.9479 # average power of issue unit per cycle
total_power            4398219461.0223 # total power per cycle
avg_total_power_cycle       71.6205 # average total power per cycle
avg_total_power_cycle_nofp_nod2      54.2365 # average total power per cycle
avg_total_power_insn        41.7725 # average total power per insn
avg_total_power_insn_nofp_nod2      31.6333 # average total power per insn
rename_power_cc1       14822249.8668 # total power usage of rename unit_cc1
bpred_power_cc1        35214794.5712 # total power usage of bpred unit_cc1
window_power_cc1       92751365.3657 # total power usage of instruction window_cc1
lsq_power_cc1          14910417.1754 # total power usage of lsq_cc1
regfile_power_cc1      117512173.9679 # total power usage of arch. regfile_cc1
icache_power_cc1       110136130.7613 # total power usage of icache_cc1
dcache_power_cc1       173200317.8190 # total power usage of dcache_cc1
dcache2_power_cc1      1023476.5496 # total power usage of dcache2_cc1
alu_power_cc1          176147408.2502 # total power usage of alu_cc1
resultbus_power_cc1    84383181.4503 # total power usage of resultbus_cc1
clock_power_cc1        476360478.3944 # total power usage of clock_cc1
avg_rename_power_cc1         0.2414 # avg power usage of rename unit_cc1
avg_bpred_power_cc1          0.5734 # avg power usage of bpred unit_cc1
avg_window_power_cc1         1.5104 # avg power usage of instruction window_cc1
avg_lsq_power_cc1            0.2428 # avg power usage of lsq_cc1
avg_regfile_power_cc1        1.9136 # avg power usage of arch. regfile_cc1
avg_icache_power_cc1         1.7935 # avg power usage of icache_cc1
avg_dcache_power_cc1         2.8204 # avg power usage of dcache_cc1
avg_dcache2_power_cc1        0.0167 # avg power usage of dcache2_cc1
avg_alu_power_cc1            2.8684 # avg power usage of alu_cc1
avg_resultbus_power_cc1       1.3741 # avg power usage of resultbus_cc1
avg_clock_power_cc1          7.7570 # avg power usage of clock_cc1
fetch_stage_power_cc1  145350925.3325 # total power usage of fetch stage_cc1
dispatch_stage_power_cc1 14822249.8668 # total power usage of dispatch stage_cc1
issue_stage_power_cc1  542416166.6102 # total power usage of issue stage_cc1
avg_fetch_power_cc1          2.3669 # average power of fetch unit per cycle_cc1
avg_dispatch_power_cc1       0.2414 # average power of dispatch unit per cycle_cc1
avg_issue_power_cc1          8.8327 # average power of issue unit per cycle_cc1
total_power_cycle_cc1  1296461994.1719 # total power per cycle_cc1
avg_total_power_cycle_cc1      21.1116 # average total power per cycle_cc1
avg_total_power_insn_cc1      12.3133 # average total power per insn_cc1
rename_power_cc2       11001877.4011 # total power usage of rename unit_cc2
bpred_power_cc2        17697482.4755 # total power usage of bpred unit_cc2
window_power_cc2       84968845.8766 # total power usage of instruction window_cc2
lsq_power_cc2          9807244.9317 # total power usage of lsq_cc2
regfile_power_cc2      40493107.1068 # total power usage of arch. regfile_cc2
icache_power_cc2       110136130.7613 # total power usage of icache_cc2
dcache_power_cc2       125276026.5939 # total power usage of dcache_cc2
dcache2_power_cc2       575501.3445 # total power usage of dcache2_cc2
alu_power_cc2          119507584.5542 # total power usage of alu_cc2
resultbus_power_cc2    63985310.6337 # total power usage of resultbus_cc2
clock_power_cc2        326985301.8977 # total power usage of clock_cc2
avg_rename_power_cc2         0.1792 # avg power usage of rename unit_cc2
avg_bpred_power_cc2          0.2882 # avg power usage of bpred unit_cc2
avg_window_power_cc2         1.3836 # avg power usage of instruction window_cc2
avg_lsq_power_cc2            0.1597 # avg power usage of instruction lsq_cc2
avg_regfile_power_cc2        0.6594 # avg power usage of arch. regfile_cc2
avg_icache_power_cc2         1.7935 # avg power usage of icache_cc2
avg_dcache_power_cc2         2.0400 # avg power usage of dcache_cc2
avg_dcache2_power_cc2        0.0094 # avg power usage of dcache2_cc2
avg_alu_power_cc2            1.9461 # avg power usage of alu_cc2
avg_resultbus_power_cc2       1.0419 # avg power usage of resultbus_cc2
avg_clock_power_cc2          5.3246 # avg power usage of clock_cc2
fetch_stage_power_cc2  127833613.2368 # total power usage of fetch stage_cc2
dispatch_stage_power_cc2 11001877.4011 # total power usage of dispatch stage_cc2
issue_stage_power_cc2  404120513.9346 # total power usage of issue stage_cc2
avg_fetch_power_cc2          2.0816 # average power of fetch unit per cycle_cc2
avg_dispatch_power_cc2       0.1792 # average power of dispatch unit per cycle_cc2
avg_issue_power_cc2          6.5807 # average power of issue unit per cycle_cc2
total_power_cycle_cc2  910434413.5770 # total power per cycle_cc2
avg_total_power_cycle_cc2      14.8255 # average total power per cycle_cc2
avg_total_power_insn_cc2       8.6469 # average total power per insn_cc2
rename_power_cc3       12086380.1355 # total power usage of rename unit_cc3
bpred_power_cc3        34665392.3757 # total power usage of bpred unit_cc3
window_power_cc3       89513821.7456 # total power usage of instruction window_cc3
lsq_power_cc3          14210031.9726 # total power usage of lsq_cc3
regfile_power_cc3      49391277.3781 # total power usage of arch. regfile_cc3
icache_power_cc3       117745499.5218 # total power usage of icache_cc3
dcache_power_cc3       148222998.1911 # total power usage of dcache_cc3
dcache2_power_cc3      19528588.9582 # total power usage of dcache2_cc3
alu_power_cc3          218210677.4013 # total power usage of alu_cc3
resultbus_power_cc3    69097234.2100 # total power usage of resultbus_cc3
clock_power_cc3        446282435.0855 # total power usage of clock_cc3
avg_rename_power_cc3         0.1968 # avg power usage of rename unit_cc3
avg_bpred_power_cc3          0.5645 # avg power usage of bpred unit_cc3
avg_window_power_cc3         1.4576 # avg power usage of instruction window_cc3
avg_lsq_power_cc3            0.2314 # avg power usage of instruction lsq_cc3
avg_regfile_power_cc3        0.8043 # avg power usage of arch. regfile_cc3
avg_icache_power_cc3         1.9174 # avg power usage of icache_cc3
avg_dcache_power_cc3         2.4137 # avg power usage of dcache_cc3
avg_dcache2_power_cc3        0.3180 # avg power usage of dcache2_cc3
avg_alu_power_cc3            3.5533 # avg power usage of alu_cc3
avg_resultbus_power_cc3       1.1252 # avg power usage of resultbus_cc3
avg_clock_power_cc3          7.2673 # avg power usage of clock_cc3
fetch_stage_power_cc3  152410891.8975 # total power usage of fetch stage_cc3
dispatch_stage_power_cc3 12086380.1355 # total power usage of dispatch stage_cc3
issue_stage_power_cc3  558783352.4787 # total power usage of issue stage_cc3
avg_fetch_power_cc3          2.4819 # average power of fetch unit per cycle_cc3
avg_dispatch_power_cc3       0.1968 # average power of dispatch unit per cycle_cc3
avg_issue_power_cc3          9.0992 # average power of issue unit per cycle_cc3
total_power_cycle_cc3  1218954336.9753 # total power per cycle_cc3
avg_total_power_cycle_cc3      19.8494 # average total power per cycle_cc3
avg_total_power_insn_cc3      11.5771 # average total power per insn_cc3
total_rename_access       105289817 # total number accesses of rename unit
total_bpred_access         10608448 # total number accesses of bpred unit
total_window_access       391659937 # total number accesses of instruction window
total_lsq_access           39092527 # total number accesses of load/store queue
total_regfile_access      151535178 # total number accesses of arch. regfile
total_icache_access       107369600 # total number accesses of icache
total_dcache_access        38913479 # total number accesses of dcache
total_dcache2_access         370935 # total number accesses of dcache2
total_alu_access          102578618 # total number accesses of alu
total_resultbus_access    118824329 # total number accesses of resultbus
avg_rename_access            1.7145 # avg number accesses of rename unit
avg_bpred_access             0.1727 # avg number accesses of bpred unit
avg_window_access            6.3778 # avg number accesses of instruction window
avg_lsq_access               0.6366 # avg number accesses of lsq
avg_regfile_access           2.4676 # avg number accesses of arch. regfile
avg_icache_access            1.7484 # avg number accesses of icache
avg_dcache_access            0.6337 # avg number accesses of dcache
avg_dcache2_access           0.0060 # avg number accesses of dcache2
avg_alu_access               1.6704 # avg number accesses of alu
avg_resultbus_access         1.9349 # avg number accesses of resultbus
max_rename_access                 4 # max number accesses of rename unit
max_bpred_access                  2 # max number accesses of bpred unit
max_window_access                17 # max number accesses of instruction window
max_lsq_access                    4 # max number accesses of load/store queue
max_regfile_access               12 # max number accesses of arch. regfile
max_icache_access                 4 # max number accesses of icache
max_dcache_access                 4 # max number accesses of dcache
max_dcache2_access                4 # max number accesses of dcache2
max_alu_access                    4 # max number accesses of alu
max_resultbus_access              6 # max number accesses of resultbus
max_cycle_power_cc1         45.4861 # maximum cycle power usage of cc1
max_cycle_power_cc2         32.9008 # maximum cycle power usage of cc2
max_cycle_power_cc3         36.3346 # maximum cycle power usage of cc3
sim_invalid_addrs                 0 # total non-speculative bogus addresses seen (debug var)
ld_text_base           0x0120000000 # program text (code) segment base
ld_text_size                 196608 # program text (code) size in bytes
ld_data_base           0x0140000000 # program initialized data segment base
ld_data_size                 146544 # program init'ed `.data' and uninit'ed `.bss' size in bytes
ld_stack_base          0x011ff9b000 # program stack segment base (highest address in stack)
ld_stack_size                 16384 # program initial stack size
ld_prog_entry          0x012000a7e0 # program entry point (initial PC)
ld_environ_base        0x011ff96e20 # program environment base address address
ld_target_big_endian              0 # target executable endian-ness, non-zero if big endian
mem.page_count                22960 # total number of pages allocated
mem.page_mem                183680k # total size of memory pages allocated
mem.ptab_misses             1552168 # total first level page table misses
mem.ptab_accesses         820351964 # total page table accesses
mem.ptab_miss_rate           0.0019 # first level page table miss rate

