sim-outorder: SimpleScalar/Alpha Tool Set version 3.0 of August, 2003.
Copyright (c) 1994-2003 by Todd M. Austin, Ph.D. and SimpleScalar, LLC.
All Rights Reserved. This version of SimpleScalar is licensed for academic
non-commercial use.  No portion of this work may be used by any commercial
entity, or for any commercial purpose, without the prior written permission
of SimpleScalar, LLC (info@simplescalar.com).


Processor Parameters:
Issue Width: 16
Window Size: 64
Number of Virtual Registers: 32
Number of Physical Registers: 64
Datapath Width: 64
Total Power Consumption: 230.639
Branch Predictor Power Consumption: 2.84842  (1.25%)
 branch target buffer power (W): 2.49493
 local predict power (W): 0.0867068
 global predict power (W): 0.0996078
 chooser power (W): 0.0702439
 RAS power (W): 0.0969383
Rename Logic Power Consumption: 3.27072  (1.43%)
 Instruction Decode Power (W): 0.0639661
 RAT decode_power (W): 0.454058
 RAT wordline_power (W): 0.227603
 RAT bitline_power (W): 2.30694
 DCL Comparators (W): 0.218151
Instruction Window Power Consumption: 43.216  (18.9%)
 tagdrive (W): 2.9395
 tagmatch (W): 0.989695
 Selection Logic (W): 0.225484
 decode_power (W): 0.976583
 wordline_power (W): 1.0557
 bitline_power (W): 37.0291
Load/Store Queue Power Consumption: 9.33077  (4.08%)
 tagdrive (W): 4.52311
 tagmatch (W): 1.71883
 decode_power (W): 0.162764
 wordline_power (W): 0.0433172
 bitline_power (W): 2.88275
Arch. Register File Power Consumption: 25.1387  (11%)
 decode_power (W): 0.454058
 wordline_power (W): 1.0557
 bitline_power (W): 23.629
Result Bus Power Consumption: 31.3281  (13.7%)
Total Clock Power: 61.271  (26.8%)
Int ALU Power: 4.66013  (2.04%)
FP ALU Power: 28.5621  (12.5%)
Instruction Cache Power Consumption: 2.76773  (1.21%)
 decode_power (W): 0.151353
 wordline_power (W): 0.180479
 bitline_power (W): 1.42251
 senseamp_power (W): 0.768
 tagarray_power (W): 0.245382
Itlb_power (W): 0.264936 (0.116%)
Data Cache Power Consumption: 11.0709  (4.84%)
 decode_power (W): 0.60541
 wordline_power (W): 0.721917
 bitline_power (W): 5.69006
 senseamp_power (W): 3.072
 tagarray_power (W): 0.981529
Dtlb_power (W): 1.80688 (0.79%)
Level 2 Cache Power Consumption: 3.10298 (1.36%)
 decode_power (W): 0.19487
 wordline_power (W): 0.0430878
 bitline_power (W): 1.77274
 senseamp_power (W): 0.192
 tagarray_power (W): 0.900275
sim: loading EIO file: ../benchmarks/168.wupwise.spec_ref.eio.gz
sim: command line: ./sim-outorder -config ../configs/current.config ../benchmarks/168.wupwise.spec_ref.eio.gz 

sim: simulation started @ Tue Nov 24 11:58:52 2015, options follow:

sim-outorder: This simulator implements a very detailed out-of-order issue
superscalar processor with a two-level memory system and speculative
execution support.  This simulator is a performance simulator, tracking the
latency of all pipeline operations.

# -config                     # load configuration from a file
# -dumpconfig                 # dump configuration to a file
# -h                    false # print help message    
# -v                    false # verbose operation     
# -d                    false # enable debug message  
# -i                    false # start in Dlite debugger
-seed                       1 # random number generator seed (0 for timer seed)
# -q                    false # initialize and terminate immediately
# -chkpt               <null> # restore EIO trace execution from <fname>
# -redir:sim     ../results/23_20_lsq/168.wupwise.spec_ref.eio.gz.out # redirect simulator output to file (non-interactive only)
# -redir:prog       /dev/null # redirect simulated program output to file
-nice                       0 # simulator scheduling priority
-freq            600000000.0000 # frequency             
-max:inst           100000000 # maximum number of inst's to execute
-fastfwd                    0 # number of insts skipped before timing starts
# -ptrace              <null> # generate pipetrace, i.e., <fname|stdout|stderr> <range>
-fetch:ifqsize             16 # instruction fetch queue size (in insts)
-fetch:mplat               15 # extra branch mis-prediction latency
-fetch:speed                1 # speed of front-end of machine relative to execution core
-bpred                perfect # branch predictor type {nottaken|taken|perfect|bimod|2lev|comb}
-bpred:bimod     2048 # bimodal predictor config (<table size>)
-bpred:2lev      1 1024 4 0 # 2-level predictor config (<l1size> <l2size> <hist_size> <xor>)
-bpred:comb      1024 # combining predictor config (<meta_table_size>)
-bpred:ras                  8 # return address stack size (0 for no return stack)
-bpred:btb       512 4 # BTB config (<num_sets> <associativity>)
# -bpred:spec_update       <null> # speculative predictors update in {ID|WB} (default non-spec)
-decode:width              16 # instruction decode B/W (insts/cycle)
-issue:width               16 # instruction issue B/W (insts/cycle)
-issue:inorder          false # run pipeline with in-order issue
-issue:wrongpath         true # issue instructions down wrong execution paths
-commit:width              16 # instruction commit B/W (insts/cycle)
-ruu:size                  64 # register update unit (RUU) size
-lsq:size                  64 # load/store queue (LSQ) size
-cache:dl1       dl1:32:64:8:f # l1 data cache config, i.e., {<config>|none}
-cache:dl1lat               1 # l1 data cache hit latency (in cycles)
-cache:dl2       dl2:256:64:8:f # l2 data cache config, i.e., {<config>|none}
-cache:dl2lat               2 # l2 data cache hit latency (in cycles)
-cache:il1       il1:32:64:8:f # l1 inst cache config, i.e., {<config>|dl1|dl2|none}
-cache:il1lat               1 # l1 instruction cache hit latency (in cycles)
-cache:il2                dl2 # l2 instruction cache config, i.e., {<config>|dl2|none}
-cache:il2lat               2 # l2 instruction cache hit latency (in cycles)
-cache:flush            false # flush caches on system calls
-cache:icompress        false # convert 64-bit inst addresses to 32-bit inst equivalents
-mem:lat         103 1 # memory access latency (<first_chunk> <inter_chunk>)
-mem:width                  8 # memory access bus width (in bytes)
-tlb:itlb        itlb:16:4096:4:l # instruction TLB config, i.e., {<config>|none}
-tlb:dtlb        dtlb:32:4096:4:l # data TLB config, i.e., {<config>|none}
-tlb:lat                   30 # inst/data TLB miss latency (in cycles)
-res:ialu                   4 # total number of integer ALU's available
-res:imult                  2 # total number of integer multiplier/dividers available
-res:memport                4 # total number of memory system ports available (to CPU)
-res:fpalu                  8 # total number of floating point ALU's available
-res:fpmult                 2 # total number of floating point multiplier/dividers available
# -pcstat              <null> # profile stat(s) against text addr's (mult uses ok)
-bugcompat              false # operate in backward-compatible bugs mode (for testing only)

  Pipetrace range arguments are formatted as follows:

    {{@|#}<start>}:{{@|#|+}<end>}

  Both ends of the range are optional, if neither are specified, the entire
  execution is traced.  Ranges that start with a `@' designate an address
  range to be traced, those that start with an `#' designate a cycle count
  range.  All other range values represent an instruction count range.  The
  second argument, if specified with a `+', indicates a value relative
  to the first argument, e.g., 1000:+100 == 1000:1100.  Program symbols may
  be used in all contexts.

    Examples:   -ptrace FOO.trc #0:#1000
                -ptrace BAR.trc @2000:
                -ptrace BLAH.trc :1500
                -ptrace UXXE.trc :
                -ptrace FOOBAR.trc @main:+278

  Branch predictor configuration examples for 2-level predictor:
    Configurations:   N, M, W, X
      N   # entries in first level (# of shift register(s))
      W   width of shift register(s)
      M   # entries in 2nd level (# of counters, or other FSM)
      X   (yes-1/no-0) xor history and address for 2nd level index
    Sample predictors:
      GAg     : 1, W, 2^W, 0
      GAp     : 1, W, M (M > 2^W), 0
      PAg     : N, W, 2^W, 0
      PAp     : N, W, M (M == 2^(N+W)), 0
      gshare  : 1, W, 2^W, 1
  Predictor `comb' combines a bimodal and a 2-level predictor.

  The cache config parameter <config> has the following format:

    <name>:<nsets>:<bsize>:<assoc>:<repl>

    <name>   - name of the cache being defined
    <nsets>  - number of sets in the cache
    <bsize>  - block size of the cache
    <assoc>  - associativity of the cache
    <repl>   - block replacement strategy, 'l'-LRU, 'f'-FIFO, 'r'-random

    Examples:   -cache:dl1 dl1:4096:32:1:l
                -dtlb dtlb:128:4096:32:r

  Cache levels can be unified by pointing a level of the instruction cache
  hierarchy at the data cache hiearchy using the "dl1" and "dl2" cache
  configuration arguments.  Most sensible combinations are supported, e.g.,

    A unified l2 cache (il2 is pointed at dl2):
      -cache:il1 il1:128:64:1:l -cache:il2 dl2
      -cache:dl1 dl1:256:32:1:l -cache:dl2 ul2:1024:64:2:l

    Or, a fully unified cache hierarchy (il1 pointed at dl1):
      -cache:il1 dl1
      -cache:dl1 ul1:256:32:1:l -cache:dl2 ul2:1024:64:2:l



sim: ** starting performance simulation **

sim: ** simulation statistics **
sim_num_insn              100000001 # total number of instructions committed
sim_num_refs               28876483 # total number of loads and stores committed
sim_num_loads              22580047 # total number of loads committed
sim_num_stores         6296436.0000 # total number of stores committed
sim_num_branches            9891655 # total number of branches committed
sim_elapsed_time                113 # total simulation time in seconds
sim_inst_rate           884955.7611 # simulation speed (in insts/sec)
sim_total_insn            100000001 # total number of instructions executed
sim_total_refs             28876483 # total number of loads and stores executed
sim_total_loads            22580047 # total number of loads executed
sim_total_stores       6296436.0000 # total number of stores executed
sim_total_branches          9891655 # total number of branches executed
sim_cycle                  43252367 # total simulation time in cycles
sim_IPC                      2.3120 # instructions per cycle
sim_CPI                      0.4325 # cycles per instruction
sim_exec_BW                  2.3120 # total instructions (mis-spec + committed) per cycle
sim_IPB                     10.1095 # instruction per branch
IFQ_count                 691832020 # cumulative IFQ occupancy
IFQ_fcount                 43239387 # cumulative IFQ full count
ifq_occupancy               15.9952 # avg IFQ occupancy (insn's)
ifq_rate                     2.3120 # avg IFQ dispatch rate (insn/cycle)
ifq_latency                  6.9183 # avg IFQ occupant latency (cycle's)
ifq_full                     0.9997 # fraction of time (cycle's) IFQ was full
RUU_count                2731612555 # cumulative RUU occupancy
RUU_fcount                 38999378 # cumulative RUU full count
ruu_occupancy               63.1552 # avg RUU occupancy (insn's)
ruu_rate                     2.3120 # avg RUU dispatch rate (insn/cycle)
ruu_latency                 27.3161 # avg RUU occupant latency (cycle's)
ruu_full                     0.9017 # fraction of time (cycle's) RUU was full
LSQ_count                 844257369 # cumulative LSQ occupancy
LSQ_fcount                        0 # cumulative LSQ full count
lsq_occupancy               19.5193 # avg LSQ occupancy (insn's)
lsq_rate                     2.3120 # avg LSQ dispatch rate (insn/cycle)
lsq_latency                  8.4426 # avg LSQ occupant latency (cycle's)
lsq_full                     0.0000 # fraction of time (cycle's) LSQ was full
sim_slip                 3704745694 # total number of slip cycles
avg_sim_slip                37.0475 # the average slip between issue and retirement
il1.accesses              139878626 # total number of accesses
il1.hits                  139878508 # total number of hits
il1.misses                      118 # total number of misses
il1.replacements                  0 # total number of replacements
il1.writebacks                    0 # total number of writebacks
il1.invalidations                 0 # total number of invalidations
il1.miss_rate                0.0000 # miss rate (i.e., misses/ref)
il1.repl_rate                0.0000 # replacement rate (i.e., repls/ref)
il1.wb_rate                  0.0000 # writeback rate (i.e., wrbks/ref)
il1.inv_rate                 0.0000 # invalidation rate (i.e., invs/ref)
dl1.accesses               28709864 # total number of accesses
dl1.hits                   28215901 # total number of hits
dl1.misses                   493963 # total number of misses
dl1.replacements             493707 # total number of replacements
dl1.writebacks                67138 # total number of writebacks
dl1.invalidations                 0 # total number of invalidations
dl1.miss_rate                0.0172 # miss rate (i.e., misses/ref)
dl1.repl_rate                0.0172 # replacement rate (i.e., repls/ref)
dl1.wb_rate                  0.0023 # writeback rate (i.e., wrbks/ref)
dl1.inv_rate                 0.0000 # invalidation rate (i.e., invs/ref)
dl2.accesses                 561219 # total number of accesses
dl2.hits                     171781 # total number of hits
dl2.misses                   389438 # total number of misses
dl2.replacements             387390 # total number of replacements
dl2.writebacks                38948 # total number of writebacks
dl2.invalidations                 0 # total number of invalidations
dl2.miss_rate                0.6939 # miss rate (i.e., misses/ref)
dl2.repl_rate                0.6903 # replacement rate (i.e., repls/ref)
dl2.wb_rate                  0.0694 # writeback rate (i.e., wrbks/ref)
dl2.inv_rate                 0.0000 # invalidation rate (i.e., invs/ref)
itlb.accesses             139878626 # total number of accesses
itlb.hits                 139878619 # total number of hits
itlb.misses                       7 # total number of misses
itlb.replacements                 0 # total number of replacements
itlb.writebacks                   0 # total number of writebacks
itlb.invalidations                0 # total number of invalidations
itlb.miss_rate               0.0000 # miss rate (i.e., misses/ref)
itlb.repl_rate               0.0000 # replacement rate (i.e., repls/ref)
itlb.wb_rate                 0.0000 # writeback rate (i.e., wrbks/ref)
itlb.inv_rate                0.0000 # invalidation rate (i.e., invs/ref)
dtlb.accesses              28876461 # total number of accesses
dtlb.hits                  28864132 # total number of hits
dtlb.misses                   12329 # total number of misses
dtlb.replacements             12201 # total number of replacements
dtlb.writebacks                   0 # total number of writebacks
dtlb.invalidations                0 # total number of invalidations
dtlb.miss_rate               0.0004 # miss rate (i.e., misses/ref)
dtlb.repl_rate               0.0004 # replacement rate (i.e., repls/ref)
dtlb.wb_rate                 0.0000 # writeback rate (i.e., wrbks/ref)
dtlb.inv_rate                0.0000 # invalidation rate (i.e., invs/ref)
rename_power           141466317.7049 # total power usage of rename unit
bpred_power            123201109.2907 # total power usage of bpred unit
window_power           1869195573.8528 # total power usage of instruction window
lsq_power              403577979.1396 # total power usage of load/store queue
regfile_power          1087310124.5390 # total power usage of arch. regfile
icache_power           131169904.6959 # total power usage of icache
dcache_power           556995163.7469 # total power usage of dcache
dcache2_power          134211090.0522 # total power usage of dcache2
alu_power              1436939667.2479 # total power usage of alu
falu_power             1235377995.2297 # total power usage of falu
resultbus_power        1355015177.3654 # total power usage of resultbus
clock_power            2650114700.0409 # total power usage of clock
avg_rename_power             3.2707 # avg power usage of rename unit
avg_bpred_power              2.8484 # avg power usage of bpred unit
avg_window_power            43.2160 # avg power usage of instruction window
avg_lsq_power                9.3308 # avg power usage of lsq
avg_regfile_power           25.1387 # avg power usage of arch. regfile
avg_icache_power             3.0327 # avg power usage of icache
avg_dcache_power            12.8778 # avg power usage of dcache
avg_dcache2_power            3.1030 # avg power usage of dcache2
avg_alu_power               33.2222 # avg power usage of alu
avg_falu_power              28.5621 # avg power usage of falu
avg_resultbus_power         31.3281 # avg power usage of resultbus
avg_clock_power             61.2710 # avg power usage of clock
fetch_stage_power      254371013.9865 # total power usage of fetch stage
dispatch_stage_power   141466317.7049 # total power usage of dispatch stage
issue_stage_power      5755934651.4047 # total power usage of issue stage
avg_fetch_power              5.8811 # average power of fetch unit per cycle
avg_dispatch_power           3.2707 # average power of dispatch unit per cycle
avg_issue_power            133.0779 # average power of issue unit per cycle
total_power            9889196807.6760 # total power per cycle
avg_total_power_cycle      228.6394 # average total power per cycle
avg_total_power_cycle_nofp_nod2     196.9744 # average total power per cycle
avg_total_power_insn        98.8920 # average total power per insn
avg_total_power_insn_nofp_nod2      85.1961 # average total power per insn
rename_power_cc1       54753590.9728 # total power usage of rename unit_cc1
bpred_power_cc1              0.0000 # total power usage of bpred unit_cc1
window_power_cc1       899172406.9032 # total power usage of instruction window_cc1
lsq_power_cc1          80603526.0754 # total power usage of lsq_cc1
regfile_power_cc1      379352294.8100 # total power usage of arch. regfile_cc1
icache_power_cc1       50768587.8500 # total power usage of icache_cc1
dcache_power_cc1       164153424.8141 # total power usage of dcache_cc1
dcache2_power_cc1      1305634.8819 # total power usage of dcache2_cc1
alu_power_cc1          474829847.4656 # total power usage of alu_cc1
resultbus_power_cc1    652769877.3421 # total power usage of resultbus_cc1
clock_power_cc1        1025642095.0922 # total power usage of clock_cc1
avg_rename_power_cc1         1.2659 # avg power usage of rename unit_cc1
avg_bpred_power_cc1          0.0000 # avg power usage of bpred unit_cc1
avg_window_power_cc1        20.7890 # avg power usage of instruction window_cc1
avg_lsq_power_cc1            1.8636 # avg power usage of lsq_cc1
avg_regfile_power_cc1        8.7707 # avg power usage of arch. regfile_cc1
avg_icache_power_cc1         1.1738 # avg power usage of icache_cc1
avg_dcache_power_cc1         3.7952 # avg power usage of dcache_cc1
avg_dcache2_power_cc1        0.0302 # avg power usage of dcache2_cc1
avg_alu_power_cc1           10.9781 # avg power usage of alu_cc1
avg_resultbus_power_cc1      15.0921 # avg power usage of resultbus_cc1
avg_clock_power_cc1         23.7130 # avg power usage of clock_cc1
fetch_stage_power_cc1  50768587.8500 # total power usage of fetch stage_cc1
dispatch_stage_power_cc1 54753590.9728 # total power usage of dispatch stage_cc1
issue_stage_power_cc1  2272834717.4823 # total power usage of issue stage_cc1
avg_fetch_power_cc1          1.1738 # average power of fetch unit per cycle_cc1
avg_dispatch_power_cc1       1.2659 # average power of dispatch unit per cycle_cc1
avg_issue_power_cc1         52.5482 # average power of issue unit per cycle_cc1
total_power_cycle_cc1  3783351286.2072 # total power per cycle_cc1
avg_total_power_cycle_cc1      87.4715 # average total power per cycle_cc1
avg_total_power_insn_cc1      37.8335 # average total power per insn_cc1
rename_power_cc2       20441990.9586 # total power usage of rename unit_cc2
bpred_power_cc2              0.0000 # total power usage of bpred unit_cc2
window_power_cc2       377779534.2467 # total power usage of instruction window_cc2
lsq_power_cc2          39657438.7694 # total power usage of lsq_cc2
regfile_power_cc2      63806014.2353 # total power usage of arch. regfile_cc2
icache_power_cc2       50768587.8500 # total power usage of icache_cc2
dcache_power_cc2       92429943.7606 # total power usage of dcache_cc2
dcache2_power_cc2       435362.3803 # total power usage of dcache2_cc2
alu_power_cc2          189197335.7936 # total power usage of alu_cc2
resultbus_power_cc2    206854275.1726 # total power usage of resultbus_cc2
clock_power_cc2        387281964.5862 # total power usage of clock_cc2
avg_rename_power_cc2         0.4726 # avg power usage of rename unit_cc2
avg_bpred_power_cc2          0.0000 # avg power usage of bpred unit_cc2
avg_window_power_cc2         8.7343 # avg power usage of instruction window_cc2
avg_lsq_power_cc2            0.9169 # avg power usage of instruction lsq_cc2
avg_regfile_power_cc2        1.4752 # avg power usage of arch. regfile_cc2
avg_icache_power_cc2         1.1738 # avg power usage of icache_cc2
avg_dcache_power_cc2         2.1370 # avg power usage of dcache_cc2
avg_dcache2_power_cc2        0.0101 # avg power usage of dcache2_cc2
avg_alu_power_cc2            4.3743 # avg power usage of alu_cc2
avg_resultbus_power_cc2       4.7825 # avg power usage of resultbus_cc2
avg_clock_power_cc2          8.9540 # avg power usage of clock_cc2
fetch_stage_power_cc2  50768587.8500 # total power usage of fetch stage_cc2
dispatch_stage_power_cc2 20441990.9586 # total power usage of dispatch stage_cc2
issue_stage_power_cc2  906353890.1232 # total power usage of issue stage_cc2
avg_fetch_power_cc2          1.1738 # average power of fetch unit per cycle_cc2
avg_dispatch_power_cc2       0.4726 # average power of dispatch unit per cycle_cc2
avg_issue_power_cc2         20.9550 # average power of issue unit per cycle_cc2
total_power_cycle_cc2  1428652447.7534 # total power per cycle_cc2
avg_total_power_cycle_cc2      33.0306 # average total power per cycle_cc2
avg_total_power_insn_cc2      14.2865 # average total power per insn_cc2
rename_power_cc3       29113263.6612 # total power usage of rename unit_cc3
bpred_power_cc3        12320110.9174 # total power usage of bpred unit_cc3
window_power_cc3       465714316.4025 # total power usage of instruction window_cc3
lsq_power_cc3          71829832.0861 # total power usage of lsq_cc3
regfile_power_cc3      130927905.1332 # total power usage of arch. regfile_cc3
icache_power_cc3       58808719.5656 # total power usage of icache_cc3
dcache_power_cc3       131922592.8083 # total power usage of dcache_cc3
dcache2_power_cc3      13725911.7880 # total power usage of dcache2_cc3
alu_power_cc3          285408317.6103 # total power usage of alu_cc3
resultbus_power_cc3    272727005.7307 # total power usage of resultbus_cc3
clock_power_cc3        543401804.3822 # total power usage of clock_cc3
avg_rename_power_cc3         0.6731 # avg power usage of rename unit_cc3
avg_bpred_power_cc3          0.2848 # avg power usage of bpred unit_cc3
avg_window_power_cc3        10.7674 # avg power usage of instruction window_cc3
avg_lsq_power_cc3            1.6607 # avg power usage of instruction lsq_cc3
avg_regfile_power_cc3        3.0271 # avg power usage of arch. regfile_cc3
avg_icache_power_cc3         1.3597 # avg power usage of icache_cc3
avg_dcache_power_cc3         3.0501 # avg power usage of dcache_cc3
avg_dcache2_power_cc3        0.3173 # avg power usage of dcache2_cc3
avg_alu_power_cc3            6.5987 # avg power usage of alu_cc3
avg_resultbus_power_cc3       6.3055 # avg power usage of resultbus_cc3
avg_clock_power_cc3         12.5635 # avg power usage of clock_cc3
fetch_stage_power_cc3  71128830.4831 # total power usage of fetch stage_cc3
dispatch_stage_power_cc3 29113263.6612 # total power usage of dispatch stage_cc3
issue_stage_power_cc3  1241327976.4259 # total power usage of issue stage_cc3
avg_fetch_power_cc3          1.6445 # average power of fetch unit per cycle_cc3
avg_dispatch_power_cc3       0.6731 # average power of dispatch unit per cycle_cc3
avg_issue_power_cc3         28.6997 # average power of issue unit per cycle_cc3
total_power_cycle_cc3  2015899780.0856 # total power per cycle_cc3
avg_total_power_cycle_cc3      46.6078 # average total power per cycle_cc3
avg_total_power_insn_cc3      20.1590 # average total power per insn_cc3
total_rename_access       100000001 # total number accesses of rename unit
total_bpred_access                0 # total number accesses of bpred unit
total_window_access       351096078 # total number accesses of instruction window
total_lsq_access           29043060 # total number accesses of load/store queue
total_regfile_access      133781676 # total number accesses of arch. regfile
total_icache_access       139878626 # total number accesses of icache
total_dcache_access        28709864 # total number accesses of dcache
total_dcache2_access         561219 # total number accesses of dcache2
total_alu_access           99715085 # total number accesses of alu
total_resultbus_access    112688326 # total number accesses of resultbus
avg_rename_access            2.3120 # avg number accesses of rename unit
avg_bpred_access             0.0000 # avg number accesses of bpred unit
avg_window_access            8.1174 # avg number accesses of instruction window
avg_lsq_access               0.6715 # avg number accesses of lsq
avg_regfile_access           3.0930 # avg number accesses of arch. regfile
avg_icache_access            3.2340 # avg number accesses of icache
avg_dcache_access            0.6638 # avg number accesses of dcache
avg_dcache2_access           0.0130 # avg number accesses of dcache2
avg_alu_access               2.3054 # avg number accesses of alu
avg_resultbus_access         2.6054 # avg number accesses of resultbus
max_rename_access                16 # max number accesses of rename unit
max_bpred_access                  0 # max number accesses of bpred unit
max_window_access                49 # max number accesses of instruction window
max_lsq_access                   13 # max number accesses of load/store queue
max_regfile_access               40 # max number accesses of arch. regfile
max_icache_access                16 # max number accesses of icache
max_dcache_access                 8 # max number accesses of dcache
max_dcache2_access                5 # max number accesses of dcache2
max_alu_access                   12 # max number accesses of alu
max_resultbus_access             16 # max number accesses of resultbus
max_cycle_power_cc1        186.8801 # maximum cycle power usage of cc1
max_cycle_power_cc2        124.1270 # maximum cycle power usage of cc2
max_cycle_power_cc3        128.3240 # maximum cycle power usage of cc3
sim_invalid_addrs                 0 # total non-speculative bogus addresses seen (debug var)
ld_text_base           0x0120000000 # program text (code) segment base
ld_text_size                 819200 # program text (code) size in bytes
ld_data_base           0x0140000000 # program initialized data segment base
ld_data_size              184522544 # program init'ed `.data' and uninit'ed `.bss' size in bytes
ld_stack_base          0x011ff9b000 # program stack segment base (highest address in stack)
ld_stack_size                 16384 # program initial stack size
ld_prog_entry          0x012001ca90 # program entry point (initial PC)
ld_environ_base        0x011ff96b90 # program environment base address address
ld_target_big_endian              0 # target executable endian-ness, non-zero if big endian
mem.page_count                22628 # total number of pages allocated
mem.page_mem                181024k # total size of memory pages allocated
mem.ptab_misses              117588 # total first level page table misses
mem.ptab_accesses        1073960108 # total page table accesses
mem.ptab_miss_rate           0.0001 # first level page table miss rate

