sim-outorder: SimpleScalar/Alpha Tool Set version 3.0 of August, 2003.
Copyright (c) 1994-2003 by Todd M. Austin, Ph.D. and SimpleScalar, LLC.
All Rights Reserved. This version of SimpleScalar is licensed for academic
non-commercial use.  No portion of this work may be used by any commercial
entity, or for any commercial purpose, without the prior written permission
of SimpleScalar, LLC (info@simplescalar.com).


Processor Parameters:
Issue Width: 16
Window Size: 64
Number of Virtual Registers: 32
Number of Physical Registers: 64
Datapath Width: 64
Total Power Consumption: 230.639
Branch Predictor Power Consumption: 2.84842  (1.25%)
 branch target buffer power (W): 2.49493
 local predict power (W): 0.0867068
 global predict power (W): 0.0996078
 chooser power (W): 0.0702439
 RAS power (W): 0.0969383
Rename Logic Power Consumption: 3.27072  (1.43%)
 Instruction Decode Power (W): 0.0639661
 RAT decode_power (W): 0.454058
 RAT wordline_power (W): 0.227603
 RAT bitline_power (W): 2.30694
 DCL Comparators (W): 0.218151
Instruction Window Power Consumption: 43.216  (18.9%)
 tagdrive (W): 2.9395
 tagmatch (W): 0.989695
 Selection Logic (W): 0.225484
 decode_power (W): 0.976583
 wordline_power (W): 1.0557
 bitline_power (W): 37.0291
Load/Store Queue Power Consumption: 9.33077  (4.08%)
 tagdrive (W): 4.52311
 tagmatch (W): 1.71883
 decode_power (W): 0.162764
 wordline_power (W): 0.0433172
 bitline_power (W): 2.88275
Arch. Register File Power Consumption: 25.1387  (11%)
 decode_power (W): 0.454058
 wordline_power (W): 1.0557
 bitline_power (W): 23.629
Result Bus Power Consumption: 31.3281  (13.7%)
Total Clock Power: 61.271  (26.8%)
Int ALU Power: 4.66013  (2.04%)
FP ALU Power: 28.5621  (12.5%)
Instruction Cache Power Consumption: 2.76773  (1.21%)
 decode_power (W): 0.151353
 wordline_power (W): 0.180479
 bitline_power (W): 1.42251
 senseamp_power (W): 0.768
 tagarray_power (W): 0.245382
Itlb_power (W): 0.264936 (0.116%)
Data Cache Power Consumption: 11.0709  (4.84%)
 decode_power (W): 0.60541
 wordline_power (W): 0.721917
 bitline_power (W): 5.69006
 senseamp_power (W): 3.072
 tagarray_power (W): 0.981529
Dtlb_power (W): 1.80688 (0.79%)
Level 2 Cache Power Consumption: 3.10298 (1.36%)
 decode_power (W): 0.19487
 wordline_power (W): 0.0430878
 bitline_power (W): 1.77274
 senseamp_power (W): 0.192
 tagarray_power (W): 0.900275
sim: loading EIO file: ../benchmarks/176.gcc.00-expr-ref.eio.gz
sim: command line: ./sim-outorder -config ../configs/current.config ../benchmarks/176.gcc.00-expr-ref.eio.gz 

sim: simulation started @ Tue Nov 24 11:58:38 2015, options follow:

sim-outorder: This simulator implements a very detailed out-of-order issue
superscalar processor with a two-level memory system and speculative
execution support.  This simulator is a performance simulator, tracking the
latency of all pipeline operations.

# -config                     # load configuration from a file
# -dumpconfig                 # dump configuration to a file
# -h                    false # print help message    
# -v                    false # verbose operation     
# -d                    false # enable debug message  
# -i                    false # start in Dlite debugger
-seed                       1 # random number generator seed (0 for timer seed)
# -q                    false # initialize and terminate immediately
# -chkpt               <null> # restore EIO trace execution from <fname>
# -redir:sim     ../results/23_20_lsq/176.gcc.00-expr-ref.eio.gz.out # redirect simulator output to file (non-interactive only)
# -redir:prog       /dev/null # redirect simulated program output to file
-nice                       0 # simulator scheduling priority
-freq            600000000.0000 # frequency             
-max:inst           100000000 # maximum number of inst's to execute
-fastfwd                    0 # number of insts skipped before timing starts
# -ptrace              <null> # generate pipetrace, i.e., <fname|stdout|stderr> <range>
-fetch:ifqsize             16 # instruction fetch queue size (in insts)
-fetch:mplat               15 # extra branch mis-prediction latency
-fetch:speed                1 # speed of front-end of machine relative to execution core
-bpred                perfect # branch predictor type {nottaken|taken|perfect|bimod|2lev|comb}
-bpred:bimod     2048 # bimodal predictor config (<table size>)
-bpred:2lev      1 1024 4 0 # 2-level predictor config (<l1size> <l2size> <hist_size> <xor>)
-bpred:comb      1024 # combining predictor config (<meta_table_size>)
-bpred:ras                  8 # return address stack size (0 for no return stack)
-bpred:btb       512 4 # BTB config (<num_sets> <associativity>)
# -bpred:spec_update       <null> # speculative predictors update in {ID|WB} (default non-spec)
-decode:width              16 # instruction decode B/W (insts/cycle)
-issue:width               16 # instruction issue B/W (insts/cycle)
-issue:inorder          false # run pipeline with in-order issue
-issue:wrongpath         true # issue instructions down wrong execution paths
-commit:width              16 # instruction commit B/W (insts/cycle)
-ruu:size                  64 # register update unit (RUU) size
-lsq:size                  64 # load/store queue (LSQ) size
-cache:dl1       dl1:32:64:8:f # l1 data cache config, i.e., {<config>|none}
-cache:dl1lat               1 # l1 data cache hit latency (in cycles)
-cache:dl2       dl2:256:64:8:f # l2 data cache config, i.e., {<config>|none}
-cache:dl2lat               2 # l2 data cache hit latency (in cycles)
-cache:il1       il1:32:64:8:f # l1 inst cache config, i.e., {<config>|dl1|dl2|none}
-cache:il1lat               1 # l1 instruction cache hit latency (in cycles)
-cache:il2                dl2 # l2 instruction cache config, i.e., {<config>|dl2|none}
-cache:il2lat               2 # l2 instruction cache hit latency (in cycles)
-cache:flush            false # flush caches on system calls
-cache:icompress        false # convert 64-bit inst addresses to 32-bit inst equivalents
-mem:lat         103 1 # memory access latency (<first_chunk> <inter_chunk>)
-mem:width                  8 # memory access bus width (in bytes)
-tlb:itlb        itlb:16:4096:4:l # instruction TLB config, i.e., {<config>|none}
-tlb:dtlb        dtlb:32:4096:4:l # data TLB config, i.e., {<config>|none}
-tlb:lat                   30 # inst/data TLB miss latency (in cycles)
-res:ialu                   4 # total number of integer ALU's available
-res:imult                  2 # total number of integer multiplier/dividers available
-res:memport                4 # total number of memory system ports available (to CPU)
-res:fpalu                  8 # total number of floating point ALU's available
-res:fpmult                 2 # total number of floating point multiplier/dividers available
# -pcstat              <null> # profile stat(s) against text addr's (mult uses ok)
-bugcompat              false # operate in backward-compatible bugs mode (for testing only)

  Pipetrace range arguments are formatted as follows:

    {{@|#}<start>}:{{@|#|+}<end>}

  Both ends of the range are optional, if neither are specified, the entire
  execution is traced.  Ranges that start with a `@' designate an address
  range to be traced, those that start with an `#' designate a cycle count
  range.  All other range values represent an instruction count range.  The
  second argument, if specified with a `+', indicates a value relative
  to the first argument, e.g., 1000:+100 == 1000:1100.  Program symbols may
  be used in all contexts.

    Examples:   -ptrace FOO.trc #0:#1000
                -ptrace BAR.trc @2000:
                -ptrace BLAH.trc :1500
                -ptrace UXXE.trc :
                -ptrace FOOBAR.trc @main:+278

  Branch predictor configuration examples for 2-level predictor:
    Configurations:   N, M, W, X
      N   # entries in first level (# of shift register(s))
      W   width of shift register(s)
      M   # entries in 2nd level (# of counters, or other FSM)
      X   (yes-1/no-0) xor history and address for 2nd level index
    Sample predictors:
      GAg     : 1, W, 2^W, 0
      GAp     : 1, W, M (M > 2^W), 0
      PAg     : N, W, 2^W, 0
      PAp     : N, W, M (M == 2^(N+W)), 0
      gshare  : 1, W, 2^W, 1
  Predictor `comb' combines a bimodal and a 2-level predictor.

  The cache config parameter <config> has the following format:

    <name>:<nsets>:<bsize>:<assoc>:<repl>

    <name>   - name of the cache being defined
    <nsets>  - number of sets in the cache
    <bsize>  - block size of the cache
    <assoc>  - associativity of the cache
    <repl>   - block replacement strategy, 'l'-LRU, 'f'-FIFO, 'r'-random

    Examples:   -cache:dl1 dl1:4096:32:1:l
                -dtlb dtlb:128:4096:32:r

  Cache levels can be unified by pointing a level of the instruction cache
  hierarchy at the data cache hiearchy using the "dl1" and "dl2" cache
  configuration arguments.  Most sensible combinations are supported, e.g.,

    A unified l2 cache (il2 is pointed at dl2):
      -cache:il1 il1:128:64:1:l -cache:il2 dl2
      -cache:dl1 dl1:256:32:1:l -cache:dl2 ul2:1024:64:2:l

    Or, a fully unified cache hierarchy (il1 pointed at dl1):
      -cache:il1 dl1
      -cache:dl1 ul1:256:32:1:l -cache:dl2 ul2:1024:64:2:l



sim: ** starting performance simulation **

sim: ** simulation statistics **
sim_num_insn              100000000 # total number of instructions committed
sim_num_refs               62486117 # total number of loads and stores committed
sim_num_loads              45137446 # total number of loads committed
sim_num_stores         17348671.0000 # total number of stores committed
sim_num_branches           10121353 # total number of branches committed
sim_elapsed_time                210 # total simulation time in seconds
sim_inst_rate           476190.4762 # simulation speed (in insts/sec)
sim_total_insn            100000000 # total number of instructions executed
sim_total_refs             62486117 # total number of loads and stores executed
sim_total_loads            45137446 # total number of loads executed
sim_total_stores       17348671.0000 # total number of stores executed
sim_total_branches         10121353 # total number of branches executed
sim_cycle                  50178392 # total simulation time in cycles
sim_IPC                      1.9929 # instructions per cycle
sim_CPI                      0.5018 # cycles per instruction
sim_exec_BW                  1.9929 # total instructions (mis-spec + committed) per cycle
sim_IPB                      9.8801 # instruction per branch
IFQ_count                 659154535 # cumulative IFQ occupancy
IFQ_fcount                 41115223 # cumulative IFQ full count
ifq_occupancy               13.1362 # avg IFQ occupancy (insn's)
ifq_rate                     1.9929 # avg IFQ dispatch rate (insn/cycle)
ifq_latency                  6.5915 # avg IFQ occupant latency (cycle's)
ifq_full                     0.8194 # fraction of time (cycle's) IFQ was full
RUU_count                2568308666 # cumulative RUU occupancy
RUU_fcount                 32676494 # cumulative RUU full count
ruu_occupancy               51.1836 # avg RUU occupancy (insn's)
ruu_rate                     1.9929 # avg RUU dispatch rate (insn/cycle)
ruu_latency                 25.6831 # avg RUU occupant latency (cycle's)
ruu_full                     0.6512 # fraction of time (cycle's) RUU was full
LSQ_count                1419090580 # cumulative LSQ occupancy
LSQ_fcount                        0 # cumulative LSQ full count
lsq_occupancy               28.2809 # avg LSQ occupancy (insn's)
lsq_rate                     1.9929 # avg LSQ dispatch rate (insn/cycle)
lsq_latency                 14.1909 # avg LSQ occupant latency (cycle's)
lsq_full                     0.0000 # fraction of time (cycle's) LSQ was full
sim_slip                 4149884295 # total number of slip cycles
avg_sim_slip                41.4988 # the average slip between issue and retirement
il1.accesses              206810380 # total number of accesses
il1.hits                  206702756 # total number of hits
il1.misses                   107624 # total number of misses
il1.replacements             107368 # total number of replacements
il1.writebacks                    0 # total number of writebacks
il1.invalidations                 0 # total number of invalidations
il1.miss_rate                0.0005 # miss rate (i.e., misses/ref)
il1.repl_rate                0.0005 # replacement rate (i.e., repls/ref)
il1.wb_rate                  0.0000 # writeback rate (i.e., wrbks/ref)
il1.inv_rate                 0.0000 # invalidation rate (i.e., invs/ref)
dl1.accesses               62264272 # total number of accesses
dl1.hits                   59905815 # total number of hits
dl1.misses                  2358457 # total number of misses
dl1.replacements            2358201 # total number of replacements
dl1.writebacks              2076731 # total number of writebacks
dl1.invalidations                 0 # total number of invalidations
dl1.miss_rate                0.0379 # miss rate (i.e., misses/ref)
dl1.repl_rate                0.0379 # replacement rate (i.e., repls/ref)
dl1.wb_rate                  0.0334 # writeback rate (i.e., wrbks/ref)
dl1.inv_rate                 0.0000 # invalidation rate (i.e., invs/ref)
dl2.accesses                4542812 # total number of accesses
dl2.hits                    2706446 # total number of hits
dl2.misses                  1836366 # total number of misses
dl2.replacements            1834318 # total number of replacements
dl2.writebacks              1498399 # total number of writebacks
dl2.invalidations                 0 # total number of invalidations
dl2.miss_rate                0.4042 # miss rate (i.e., misses/ref)
dl2.repl_rate                0.4038 # replacement rate (i.e., repls/ref)
dl2.wb_rate                  0.3298 # writeback rate (i.e., wrbks/ref)
dl2.inv_rate                 0.0000 # invalidation rate (i.e., invs/ref)
itlb.accesses             206810380 # total number of accesses
itlb.hits                 206808139 # total number of hits
itlb.misses                    2241 # total number of misses
itlb.replacements              2180 # total number of replacements
itlb.writebacks                   0 # total number of writebacks
itlb.invalidations                0 # total number of invalidations
itlb.miss_rate               0.0000 # miss rate (i.e., misses/ref)
itlb.repl_rate               0.0000 # replacement rate (i.e., repls/ref)
itlb.wb_rate                 0.0000 # writeback rate (i.e., wrbks/ref)
itlb.inv_rate                0.0000 # invalidation rate (i.e., invs/ref)
dtlb.accesses              62486068 # total number of accesses
dtlb.hits                  62454805 # total number of hits
dtlb.misses                   31263 # total number of misses
dtlb.replacements             31135 # total number of replacements
dtlb.writebacks                   0 # total number of writebacks
dtlb.invalidations                0 # total number of invalidations
dtlb.miss_rate               0.0005 # miss rate (i.e., misses/ref)
dtlb.repl_rate               0.0005 # replacement rate (i.e., repls/ref)
dtlb.wb_rate                 0.0000 # writeback rate (i.e., wrbks/ref)
dtlb.inv_rate                0.0000 # invalidation rate (i.e., invs/ref)
rename_power           164119395.9072 # total power usage of rename unit
bpred_power            142929369.7870 # total power usage of bpred unit
window_power           2168510875.5680 # total power usage of instruction window
lsq_power              468203139.9865 # total power usage of load/store queue
regfile_power          1261421684.8461 # total power usage of arch. regfile
icache_power           152174212.6368 # total power usage of icache
dcache_power           646187101.9866 # total power usage of dcache
dcache2_power          155702384.7301 # total power usage of dcache2
alu_power              1667037596.4381 # total power usage of alu
falu_power             1433199744.0681 # total power usage of falu
resultbus_power        1571994493.2207 # total power usage of resultbus
clock_power            3074479005.4473 # total power usage of clock
avg_rename_power             3.2707 # avg power usage of rename unit
avg_bpred_power              2.8484 # avg power usage of bpred unit
avg_window_power            43.2160 # avg power usage of instruction window
avg_lsq_power                9.3308 # avg power usage of lsq
avg_regfile_power           25.1387 # avg power usage of arch. regfile
avg_icache_power             3.0327 # avg power usage of icache
avg_dcache_power            12.8778 # avg power usage of dcache
avg_dcache2_power            3.1030 # avg power usage of dcache2
avg_alu_power               33.2222 # avg power usage of alu
avg_falu_power              28.5621 # avg power usage of falu
avg_resultbus_power         31.3281 # avg power usage of resultbus
avg_clock_power             61.2710 # avg power usage of clock
fetch_stage_power      295103582.4238 # total power usage of fetch stage
dispatch_stage_power   164119395.9072 # total power usage of dispatch stage
issue_stage_power      6677635591.9300 # total power usage of issue stage
avg_fetch_power              5.8811 # average power of fetch unit per cycle
avg_dispatch_power           3.2707 # average power of dispatch unit per cycle
avg_issue_power            133.0779 # average power of issue unit per cycle
total_power            11472759260.5544 # total power per cycle
avg_total_power_cycle      228.6394 # average total power per cycle
avg_total_power_cycle_nofp_nod2     196.9744 # average total power per cycle
avg_total_power_insn       114.7276 # average total power per insn
avg_total_power_insn_nofp_nod2      98.8386 # average total power per insn
rename_power_cc1       75385518.8848 # total power usage of rename unit_cc1
bpred_power_cc1              0.0000 # total power usage of bpred unit_cc1
window_power_cc1       1023213678.2649 # total power usage of instruction window_cc1
lsq_power_cc1          178526058.2808 # total power usage of lsq_cc1
regfile_power_cc1      516375603.0040 # total power usage of arch. regfile_cc1
icache_power_cc1       69994059.4018 # total power usage of icache_cc1
dcache_power_cc1       292602799.3351 # total power usage of dcache_cc1
dcache2_power_cc1      7596327.6187 # total power usage of dcache2_cc1
alu_power_cc1          119547407.1390 # total power usage of alu_cc1
resultbus_power_cc1    762450292.8242 # total power usage of resultbus_cc1
clock_power_cc1        1103409744.9671 # total power usage of clock_cc1
avg_rename_power_cc1         1.5024 # avg power usage of rename unit_cc1
avg_bpred_power_cc1          0.0000 # avg power usage of bpred unit_cc1
avg_window_power_cc1        20.3915 # avg power usage of instruction window_cc1
avg_lsq_power_cc1            3.5578 # avg power usage of lsq_cc1
avg_regfile_power_cc1       10.2908 # avg power usage of arch. regfile_cc1
avg_icache_power_cc1         1.3949 # avg power usage of icache_cc1
avg_dcache_power_cc1         5.8313 # avg power usage of dcache_cc1
avg_dcache2_power_cc1        0.1514 # avg power usage of dcache2_cc1
avg_alu_power_cc1            2.3824 # avg power usage of alu_cc1
avg_resultbus_power_cc1      15.1948 # avg power usage of resultbus_cc1
avg_clock_power_cc1         21.9897 # avg power usage of clock_cc1
fetch_stage_power_cc1  69994059.4018 # total power usage of fetch stage_cc1
dispatch_stage_power_cc1 75385518.8848 # total power usage of dispatch stage_cc1
issue_stage_power_cc1  2383936563.4627 # total power usage of issue stage_cc1
avg_fetch_power_cc1          1.3949 # average power of fetch unit per cycle_cc1
avg_dispatch_power_cc1       1.5024 # average power of dispatch unit per cycle_cc1
avg_issue_power_cc1         47.5092 # average power of issue unit per cycle_cc1
total_power_cycle_cc1  4149101489.7203 # total power per cycle_cc1
avg_total_power_cycle_cc1      82.6870 # average total power per cycle_cc1
avg_total_power_insn_cc1      41.4910 # average total power per insn_cc1
rename_power_cc2       20441990.7552 # total power usage of rename unit_cc2
bpred_power_cc2              0.0000 # total power usage of bpred unit_cc2
window_power_cc2       449063720.6005 # total power usage of instruction window_cc2
lsq_power_cc2          83794299.5772 # total power usage of lsq_cc2
regfile_power_cc2      61072913.1471 # total power usage of arch. regfile_cc2
icache_power_cc2       69994059.4018 # total power usage of icache_cc2
dcache_power_cc2       200456650.0506 # total power usage of dcache_cc2
dcache2_power_cc2      3524060.0290 # total power usage of dcache2_cc2
alu_power_cc2          114179752.8984 # total power usage of alu_cc2
resultbus_power_cc2    247839680.2053 # total power usage of resultbus_cc2
clock_power_cc2        448466410.8788 # total power usage of clock_cc2
avg_rename_power_cc2         0.4074 # avg power usage of rename unit_cc2
avg_bpred_power_cc2          0.0000 # avg power usage of bpred unit_cc2
avg_window_power_cc2         8.9493 # avg power usage of instruction window_cc2
avg_lsq_power_cc2            1.6699 # avg power usage of instruction lsq_cc2
avg_regfile_power_cc2        1.2171 # avg power usage of arch. regfile_cc2
avg_icache_power_cc2         1.3949 # avg power usage of icache_cc2
avg_dcache_power_cc2         3.9949 # avg power usage of dcache_cc2
avg_dcache2_power_cc2        0.0702 # avg power usage of dcache2_cc2
avg_alu_power_cc2            2.2755 # avg power usage of alu_cc2
avg_resultbus_power_cc2       4.9392 # avg power usage of resultbus_cc2
avg_clock_power_cc2          8.9374 # avg power usage of clock_cc2
fetch_stage_power_cc2  69994059.4018 # total power usage of fetch stage_cc2
dispatch_stage_power_cc2 20441990.7552 # total power usage of dispatch stage_cc2
issue_stage_power_cc2  1098858163.3611 # total power usage of issue stage_cc2
avg_fetch_power_cc2          1.3949 # average power of fetch unit per cycle_cc2
avg_dispatch_power_cc2       0.4074 # average power of dispatch unit per cycle_cc2
avg_issue_power_cc2         21.8990 # average power of issue unit per cycle_cc2
total_power_cycle_cc2  1698833537.5439 # total power per cycle_cc2
avg_total_power_cycle_cc2      33.8559 # average total power per cycle_cc2
avg_total_power_insn_cc2      16.9883 # average total power per insn_cc2
rename_power_cc3       29315378.4870 # total power usage of rename unit_cc3
bpred_power_cc3        14292936.9645 # total power usage of bpred unit_cc3
window_power_cc3       552027940.8323 # total power usage of instruction window_cc3
lsq_power_cc3          112707799.2480 # total power usage of lsq_cc3
regfile_power_cc3      128837478.5166 # total power usage of arch. regfile_cc3
icache_power_cc3       78212074.7671 # total power usage of icache_cc3
dcache_power_cc3       236355988.1803 # total power usage of dcache_cc3
dcache2_power_cc3      18334715.2399 # total power usage of dcache2_cc3
alu_power_cc3          268928771.3886 # total power usage of alu_cc3
resultbus_power_cc3    323712752.6890 # total power usage of resultbus_cc3
clock_power_cc3        637115140.0133 # total power usage of clock_cc3
avg_rename_power_cc3         0.5842 # avg power usage of rename unit_cc3
avg_bpred_power_cc3          0.2848 # avg power usage of bpred unit_cc3
avg_window_power_cc3        11.0013 # avg power usage of instruction window_cc3
avg_lsq_power_cc3            2.2461 # avg power usage of instruction lsq_cc3
avg_regfile_power_cc3        2.5676 # avg power usage of arch. regfile_cc3
avg_icache_power_cc3         1.5587 # avg power usage of icache_cc3
avg_dcache_power_cc3         4.7103 # avg power usage of dcache_cc3
avg_dcache2_power_cc3        0.3654 # avg power usage of dcache2_cc3
avg_alu_power_cc3            5.3595 # avg power usage of alu_cc3
avg_resultbus_power_cc3       6.4512 # avg power usage of resultbus_cc3
avg_clock_power_cc3         12.6970 # avg power usage of clock_cc3
fetch_stage_power_cc3  92505011.7315 # total power usage of fetch stage_cc3
dispatch_stage_power_cc3 29315378.4870 # total power usage of dispatch stage_cc3
issue_stage_power_cc3  1512067967.5781 # total power usage of issue stage_cc3
avg_fetch_power_cc3          1.8435 # average power of fetch unit per cycle_cc3
avg_dispatch_power_cc3       0.5842 # average power of dispatch unit per cycle_cc3
avg_issue_power_cc3         30.1338 # average power of issue unit per cycle_cc3
total_power_cycle_cc3  2399840976.3265 # total power per cycle_cc3
avg_total_power_cycle_cc3      47.8262 # average total power per cycle_cc3
avg_total_power_insn_cc3      23.9984 # average total power per insn_cc3
total_rename_access       100000000 # total number accesses of rename unit
total_bpred_access                0 # total number accesses of bpred unit
total_window_access       420502194 # total number accesses of instruction window
total_lsq_access           62707867 # total number accesses of load/store queue
total_regfile_access      131815195 # total number accesses of arch. regfile
total_icache_access       206810380 # total number accesses of icache
total_dcache_access        62264272 # total number accesses of dcache
total_dcache2_access        4542812 # total number accesses of dcache2
total_alu_access           98005054 # total number accesses of alu
total_resultbus_access    135016009 # total number accesses of resultbus
avg_rename_access            1.9929 # avg number accesses of rename unit
avg_bpred_access             0.0000 # avg number accesses of bpred unit
avg_window_access            8.3801 # avg number accesses of instruction window
avg_lsq_access               1.2497 # avg number accesses of lsq
avg_regfile_access           2.6269 # avg number accesses of arch. regfile
avg_icache_access            4.1215 # avg number accesses of icache
avg_dcache_access            1.2409 # avg number accesses of dcache
avg_dcache2_access           0.0905 # avg number accesses of dcache2
avg_alu_access               1.9531 # avg number accesses of alu
avg_resultbus_access         2.6907 # avg number accesses of resultbus
max_rename_access                16 # max number accesses of rename unit
max_bpred_access                  0 # max number accesses of bpred unit
max_window_access                45 # max number accesses of instruction window
max_lsq_access                   12 # max number accesses of load/store queue
max_regfile_access               35 # max number accesses of arch. regfile
max_icache_access                16 # max number accesses of icache
max_dcache_access                 8 # max number accesses of dcache
max_dcache2_access                8 # max number accesses of dcache2
max_alu_access                    6 # max number accesses of alu
max_resultbus_access             35 # max number accesses of resultbus
max_cycle_power_cc1        174.6975 # maximum cycle power usage of cc1
max_cycle_power_cc2        108.9807 # maximum cycle power usage of cc2
max_cycle_power_cc3        121.6566 # maximum cycle power usage of cc3
sim_invalid_addrs                 0 # total non-speculative bogus addresses seen (debug var)
ld_text_base           0x0120000000 # program text (code) segment base
ld_text_size                1990656 # program text (code) size in bytes
ld_data_base           0x0140000000 # program initialized data segment base
ld_data_size                 306320 # program init'ed `.data' and uninit'ed `.bss' size in bytes
ld_stack_base          0x011ff9b000 # program stack segment base (highest address in stack)
ld_stack_size                 16384 # program initial stack size
ld_prog_entry          0x01201cdbd8 # program entry point (initial PC)
ld_environ_base        0x011fe9e770 # program environment base address address
ld_target_big_endian              0 # target executable endian-ness, non-zero if big endian
mem.page_count                 2015 # total number of pages allocated
mem.page_mem                 16120k # total size of memory pages allocated
mem.ptab_misses               13183 # total first level page table misses
mem.ptab_accesses        1371180154 # total page table accesses
mem.ptab_miss_rate           0.0000 # first level page table miss rate

