sim-outorder: SimpleScalar/Alpha Tool Set version 3.0 of August, 2003.
Copyright (c) 1994-2003 by Todd M. Austin, Ph.D. and SimpleScalar, LLC.
All Rights Reserved. This version of SimpleScalar is licensed for academic
non-commercial use.  No portion of this work may be used by any commercial
entity, or for any commercial purpose, without the prior written permission
of SimpleScalar, LLC (info@simplescalar.com).


Processor Parameters:
Issue Width: 16
Window Size: 64
Number of Virtual Registers: 32
Number of Physical Registers: 64
Datapath Width: 64
Total Power Consumption: 230.639
Branch Predictor Power Consumption: 2.84842  (1.25%)
 branch target buffer power (W): 2.49493
 local predict power (W): 0.0867068
 global predict power (W): 0.0996078
 chooser power (W): 0.0702439
 RAS power (W): 0.0969383
Rename Logic Power Consumption: 3.27072  (1.43%)
 Instruction Decode Power (W): 0.0639661
 RAT decode_power (W): 0.454058
 RAT wordline_power (W): 0.227603
 RAT bitline_power (W): 2.30694
 DCL Comparators (W): 0.218151
Instruction Window Power Consumption: 43.216  (18.9%)
 tagdrive (W): 2.9395
 tagmatch (W): 0.989695
 Selection Logic (W): 0.225484
 decode_power (W): 0.976583
 wordline_power (W): 1.0557
 bitline_power (W): 37.0291
Load/Store Queue Power Consumption: 9.33077  (4.08%)
 tagdrive (W): 4.52311
 tagmatch (W): 1.71883
 decode_power (W): 0.162764
 wordline_power (W): 0.0433172
 bitline_power (W): 2.88275
Arch. Register File Power Consumption: 25.1387  (11%)
 decode_power (W): 0.454058
 wordline_power (W): 1.0557
 bitline_power (W): 23.629
Result Bus Power Consumption: 31.3281  (13.7%)
Total Clock Power: 61.271  (26.8%)
Int ALU Power: 4.66013  (2.04%)
FP ALU Power: 28.5621  (12.5%)
Instruction Cache Power Consumption: 2.76773  (1.21%)
 decode_power (W): 0.151353
 wordline_power (W): 0.180479
 bitline_power (W): 1.42251
 senseamp_power (W): 0.768
 tagarray_power (W): 0.245382
Itlb_power (W): 0.264936 (0.116%)
Data Cache Power Consumption: 11.0709  (4.84%)
 decode_power (W): 0.60541
 wordline_power (W): 0.721917
 bitline_power (W): 5.69006
 senseamp_power (W): 3.072
 tagarray_power (W): 0.981529
Dtlb_power (W): 1.80688 (0.79%)
Level 2 Cache Power Consumption: 3.10298 (1.36%)
 decode_power (W): 0.19487
 wordline_power (W): 0.0430878
 bitline_power (W): 1.77274
 senseamp_power (W): 0.192
 tagarray_power (W): 0.900275
sim: loading EIO file: ../benchmarks/200.sixtrack.spec_ref.eio.gz
sim: command line: ./sim-outorder -config ../configs/current.config ../benchmarks/200.sixtrack.spec_ref.eio.gz 

sim: simulation started @ Tue Nov 24 11:58:38 2015, options follow:

sim-outorder: This simulator implements a very detailed out-of-order issue
superscalar processor with a two-level memory system and speculative
execution support.  This simulator is a performance simulator, tracking the
latency of all pipeline operations.

# -config                     # load configuration from a file
# -dumpconfig                 # dump configuration to a file
# -h                    false # print help message    
# -v                    false # verbose operation     
# -d                    false # enable debug message  
# -i                    false # start in Dlite debugger
-seed                       1 # random number generator seed (0 for timer seed)
# -q                    false # initialize and terminate immediately
# -chkpt               <null> # restore EIO trace execution from <fname>
# -redir:sim     ../results/23_20_lsq/200.sixtrack.spec_ref.eio.gz.out # redirect simulator output to file (non-interactive only)
# -redir:prog       /dev/null # redirect simulated program output to file
-nice                       0 # simulator scheduling priority
-freq            600000000.0000 # frequency             
-max:inst           100000000 # maximum number of inst's to execute
-fastfwd                    0 # number of insts skipped before timing starts
# -ptrace              <null> # generate pipetrace, i.e., <fname|stdout|stderr> <range>
-fetch:ifqsize             16 # instruction fetch queue size (in insts)
-fetch:mplat               15 # extra branch mis-prediction latency
-fetch:speed                1 # speed of front-end of machine relative to execution core
-bpred                perfect # branch predictor type {nottaken|taken|perfect|bimod|2lev|comb}
-bpred:bimod     2048 # bimodal predictor config (<table size>)
-bpred:2lev      1 1024 4 0 # 2-level predictor config (<l1size> <l2size> <hist_size> <xor>)
-bpred:comb      1024 # combining predictor config (<meta_table_size>)
-bpred:ras                  8 # return address stack size (0 for no return stack)
-bpred:btb       512 4 # BTB config (<num_sets> <associativity>)
# -bpred:spec_update       <null> # speculative predictors update in {ID|WB} (default non-spec)
-decode:width              16 # instruction decode B/W (insts/cycle)
-issue:width               16 # instruction issue B/W (insts/cycle)
-issue:inorder          false # run pipeline with in-order issue
-issue:wrongpath         true # issue instructions down wrong execution paths
-commit:width              16 # instruction commit B/W (insts/cycle)
-ruu:size                  64 # register update unit (RUU) size
-lsq:size                  64 # load/store queue (LSQ) size
-cache:dl1       dl1:32:64:8:f # l1 data cache config, i.e., {<config>|none}
-cache:dl1lat               1 # l1 data cache hit latency (in cycles)
-cache:dl2       dl2:256:64:8:f # l2 data cache config, i.e., {<config>|none}
-cache:dl2lat               2 # l2 data cache hit latency (in cycles)
-cache:il1       il1:32:64:8:f # l1 inst cache config, i.e., {<config>|dl1|dl2|none}
-cache:il1lat               1 # l1 instruction cache hit latency (in cycles)
-cache:il2                dl2 # l2 instruction cache config, i.e., {<config>|dl2|none}
-cache:il2lat               2 # l2 instruction cache hit latency (in cycles)
-cache:flush            false # flush caches on system calls
-cache:icompress        false # convert 64-bit inst addresses to 32-bit inst equivalents
-mem:lat         103 1 # memory access latency (<first_chunk> <inter_chunk>)
-mem:width                  8 # memory access bus width (in bytes)
-tlb:itlb        itlb:16:4096:4:l # instruction TLB config, i.e., {<config>|none}
-tlb:dtlb        dtlb:32:4096:4:l # data TLB config, i.e., {<config>|none}
-tlb:lat                   30 # inst/data TLB miss latency (in cycles)
-res:ialu                   4 # total number of integer ALU's available
-res:imult                  2 # total number of integer multiplier/dividers available
-res:memport                4 # total number of memory system ports available (to CPU)
-res:fpalu                  8 # total number of floating point ALU's available
-res:fpmult                 2 # total number of floating point multiplier/dividers available
# -pcstat              <null> # profile stat(s) against text addr's (mult uses ok)
-bugcompat              false # operate in backward-compatible bugs mode (for testing only)

  Pipetrace range arguments are formatted as follows:

    {{@|#}<start>}:{{@|#|+}<end>}

  Both ends of the range are optional, if neither are specified, the entire
  execution is traced.  Ranges that start with a `@' designate an address
  range to be traced, those that start with an `#' designate a cycle count
  range.  All other range values represent an instruction count range.  The
  second argument, if specified with a `+', indicates a value relative
  to the first argument, e.g., 1000:+100 == 1000:1100.  Program symbols may
  be used in all contexts.

    Examples:   -ptrace FOO.trc #0:#1000
                -ptrace BAR.trc @2000:
                -ptrace BLAH.trc :1500
                -ptrace UXXE.trc :
                -ptrace FOOBAR.trc @main:+278

  Branch predictor configuration examples for 2-level predictor:
    Configurations:   N, M, W, X
      N   # entries in first level (# of shift register(s))
      W   width of shift register(s)
      M   # entries in 2nd level (# of counters, or other FSM)
      X   (yes-1/no-0) xor history and address for 2nd level index
    Sample predictors:
      GAg     : 1, W, 2^W, 0
      GAp     : 1, W, M (M > 2^W), 0
      PAg     : N, W, 2^W, 0
      PAp     : N, W, M (M == 2^(N+W)), 0
      gshare  : 1, W, 2^W, 1
  Predictor `comb' combines a bimodal and a 2-level predictor.

  The cache config parameter <config> has the following format:

    <name>:<nsets>:<bsize>:<assoc>:<repl>

    <name>   - name of the cache being defined
    <nsets>  - number of sets in the cache
    <bsize>  - block size of the cache
    <assoc>  - associativity of the cache
    <repl>   - block replacement strategy, 'l'-LRU, 'f'-FIFO, 'r'-random

    Examples:   -cache:dl1 dl1:4096:32:1:l
                -dtlb dtlb:128:4096:32:r

  Cache levels can be unified by pointing a level of the instruction cache
  hierarchy at the data cache hiearchy using the "dl1" and "dl2" cache
  configuration arguments.  Most sensible combinations are supported, e.g.,

    A unified l2 cache (il2 is pointed at dl2):
      -cache:il1 il1:128:64:1:l -cache:il2 dl2
      -cache:dl1 dl1:256:32:1:l -cache:dl2 ul2:1024:64:2:l

    Or, a fully unified cache hierarchy (il1 pointed at dl1):
      -cache:il1 dl1
      -cache:dl1 ul1:256:32:1:l -cache:dl2 ul2:1024:64:2:l



sim: ** starting performance simulation **

sim: ** simulation statistics **
sim_num_insn              100000010 # total number of instructions committed
sim_num_refs               24693466 # total number of loads and stores committed
sim_num_loads              19363697 # total number of loads committed
sim_num_stores         5329769.0000 # total number of stores committed
sim_num_branches            2247043 # total number of branches committed
sim_elapsed_time                 93 # total simulation time in seconds
sim_inst_rate          1075268.9247 # simulation speed (in insts/sec)
sim_total_insn            100000010 # total number of instructions executed
sim_total_refs             24693466 # total number of loads and stores executed
sim_total_loads            19363697 # total number of loads executed
sim_total_stores       5329769.0000 # total number of stores executed
sim_total_branches          2247043 # total number of branches executed
sim_cycle                  29688562 # total simulation time in cycles
sim_IPC                      3.3683 # instructions per cycle
sim_CPI                      0.2969 # cycles per instruction
sim_exec_BW                  3.3683 # total instructions (mis-spec + committed) per cycle
sim_IPB                     44.5029 # instruction per branch
IFQ_count                 464927117 # cumulative IFQ occupancy
IFQ_fcount                 28969496 # cumulative IFQ full count
ifq_occupancy               15.6601 # avg IFQ occupancy (insn's)
ifq_rate                     3.3683 # avg IFQ dispatch rate (insn/cycle)
ifq_latency                  4.6493 # avg IFQ occupant latency (cycle's)
ifq_full                     0.9758 # fraction of time (cycle's) IFQ was full
RUU_count                1866506098 # cumulative RUU occupancy
RUU_fcount                 28560121 # cumulative RUU full count
ruu_occupancy               62.8695 # avg RUU occupancy (insn's)
ruu_rate                     3.3683 # avg RUU dispatch rate (insn/cycle)
ruu_latency                 18.6651 # avg RUU occupant latency (cycle's)
ruu_full                     0.9620 # fraction of time (cycle's) RUU was full
LSQ_count                 414826593 # cumulative LSQ occupancy
LSQ_fcount                        0 # cumulative LSQ full count
lsq_occupancy               13.9726 # avg LSQ occupancy (insn's)
lsq_rate                     3.3683 # avg LSQ dispatch rate (insn/cycle)
lsq_latency                  4.1483 # avg LSQ occupant latency (cycle's)
lsq_full                     0.0000 # fraction of time (cycle's) LSQ was full
sim_slip                 2406025627 # total number of slip cycles
avg_sim_slip                24.0603 # the average slip between issue and retirement
il1.accesses              106418571 # total number of accesses
il1.hits                  106306714 # total number of hits
il1.misses                   111857 # total number of misses
il1.replacements             111601 # total number of replacements
il1.writebacks                    0 # total number of writebacks
il1.invalidations                 0 # total number of invalidations
il1.miss_rate                0.0011 # miss rate (i.e., misses/ref)
il1.repl_rate                0.0010 # replacement rate (i.e., repls/ref)
il1.wb_rate                  0.0000 # writeback rate (i.e., wrbks/ref)
il1.inv_rate                 0.0000 # invalidation rate (i.e., invs/ref)
dl1.accesses               24516157 # total number of accesses
dl1.hits                   24424111 # total number of hits
dl1.misses                    92046 # total number of misses
dl1.replacements              91790 # total number of replacements
dl1.writebacks                20420 # total number of writebacks
dl1.invalidations                 0 # total number of invalidations
dl1.miss_rate                0.0038 # miss rate (i.e., misses/ref)
dl1.repl_rate                0.0037 # replacement rate (i.e., repls/ref)
dl1.wb_rate                  0.0008 # writeback rate (i.e., wrbks/ref)
dl1.inv_rate                 0.0000 # invalidation rate (i.e., invs/ref)
dl2.accesses                 224323 # total number of accesses
dl2.hits                     163110 # total number of hits
dl2.misses                    61213 # total number of misses
dl2.replacements              59165 # total number of replacements
dl2.writebacks                 1842 # total number of writebacks
dl2.invalidations                 0 # total number of invalidations
dl2.miss_rate                0.2729 # miss rate (i.e., misses/ref)
dl2.repl_rate                0.2637 # replacement rate (i.e., repls/ref)
dl2.wb_rate                  0.0082 # writeback rate (i.e., wrbks/ref)
dl2.inv_rate                 0.0000 # invalidation rate (i.e., invs/ref)
itlb.accesses             106418571 # total number of accesses
itlb.hits                 106418553 # total number of hits
itlb.misses                      18 # total number of misses
itlb.replacements                 0 # total number of replacements
itlb.writebacks                   0 # total number of writebacks
itlb.invalidations                0 # total number of invalidations
itlb.miss_rate               0.0000 # miss rate (i.e., misses/ref)
itlb.repl_rate               0.0000 # replacement rate (i.e., repls/ref)
itlb.wb_rate                 0.0000 # writeback rate (i.e., wrbks/ref)
itlb.inv_rate                0.0000 # invalidation rate (i.e., invs/ref)
dtlb.accesses              24693448 # total number of accesses
dtlb.hits                  24691771 # total number of hits
dtlb.misses                    1677 # total number of misses
dtlb.replacements              1549 # total number of replacements
dtlb.writebacks                   0 # total number of writebacks
dtlb.invalidations                0 # total number of invalidations
dtlb.miss_rate               0.0001 # miss rate (i.e., misses/ref)
dtlb.repl_rate               0.0001 # replacement rate (i.e., repls/ref)
dtlb.wb_rate                 0.0000 # writeback rate (i.e., wrbks/ref)
dtlb.inv_rate                0.0000 # invalidation rate (i.e., invs/ref)
rename_power           97102929.5586 # total power usage of rename unit
bpred_power            84565632.4678 # total power usage of bpred unit
window_power           1283021774.8872 # total power usage of instruction window
lsq_power              277017205.8503 # total power usage of load/store queue
regfile_power          746333120.8102 # total power usage of arch. regfile
icache_power           90035438.9284 # total power usage of icache
dcache_power           382323248.3406 # total power usage of dcache
dcache2_power          92122918.2351 # total power usage of dcache2
alu_power              986319948.1063 # total power usage of alu
falu_power             847967377.1617 # total power usage of falu
resultbus_power        930086718.5027 # total power usage of resultbus
clock_power            1819047141.4495 # total power usage of clock
avg_rename_power             3.2707 # avg power usage of rename unit
avg_bpred_power              2.8484 # avg power usage of bpred unit
avg_window_power            43.2160 # avg power usage of instruction window
avg_lsq_power                9.3308 # avg power usage of lsq
avg_regfile_power           25.1387 # avg power usage of arch. regfile
avg_icache_power             3.0327 # avg power usage of icache
avg_dcache_power            12.8778 # avg power usage of dcache
avg_dcache2_power            3.1030 # avg power usage of dcache2
avg_alu_power               33.2222 # avg power usage of alu
avg_falu_power              28.5621 # avg power usage of falu
avg_resultbus_power         31.3281 # avg power usage of resultbus
avg_clock_power             61.2710 # avg power usage of clock
fetch_stage_power      174601071.3962 # total power usage of fetch stage
dispatch_stage_power   97102929.5586 # total power usage of dispatch stage
issue_stage_power      3950891813.9221 # total power usage of issue stage
avg_fetch_power              5.8811 # average power of fetch unit per cycle
avg_dispatch_power           3.2707 # average power of dispatch unit per cycle
avg_issue_power            133.0779 # average power of issue unit per cycle
total_power            6787976077.1366 # total power per cycle
avg_total_power_cycle      228.6394 # average total power per cycle
avg_total_power_cycle_nofp_nod2     196.9744 # average total power per cycle
avg_total_power_insn        67.8798 # average total power per insn
avg_total_power_insn_nofp_nod2      58.4789 # average total power per insn
rename_power_cc1       58814999.1565 # total power usage of rename unit_cc1
bpred_power_cc1              0.0000 # total power usage of bpred unit_cc1
window_power_cc1       1058936390.9471 # total power usage of instruction window_cc1
lsq_power_cc1          69399659.9990 # total power usage of lsq_cc1
regfile_power_cc1      401478577.6956 # total power usage of arch. regfile_cc1
icache_power_cc1       54550335.2641 # total power usage of icache_cc1
dcache_power_cc1       141579836.2035 # total power usage of dcache_cc1
dcache2_power_cc1       581033.1763 # total power usage of dcache2_cc1
alu_power_cc1          790366331.6348 # total power usage of alu_cc1
resultbus_power_cc1    794745688.3710 # total power usage of resultbus_cc1
clock_power_cc1        1251359422.6142 # total power usage of clock_cc1
avg_rename_power_cc1         1.9811 # avg power usage of rename unit_cc1
avg_bpred_power_cc1          0.0000 # avg power usage of bpred unit_cc1
avg_window_power_cc1        35.6682 # avg power usage of instruction window_cc1
avg_lsq_power_cc1            2.3376 # avg power usage of lsq_cc1
avg_regfile_power_cc1       13.5230 # avg power usage of arch. regfile_cc1
avg_icache_power_cc1         1.8374 # avg power usage of icache_cc1
avg_dcache_power_cc1         4.7688 # avg power usage of dcache_cc1
avg_dcache2_power_cc1        0.0196 # avg power usage of dcache2_cc1
avg_alu_power_cc1           26.6219 # avg power usage of alu_cc1
avg_resultbus_power_cc1      26.7694 # avg power usage of resultbus_cc1
avg_clock_power_cc1         42.1495 # avg power usage of clock_cc1
fetch_stage_power_cc1  54550335.2641 # total power usage of fetch stage_cc1
dispatch_stage_power_cc1 58814999.1565 # total power usage of dispatch stage_cc1
issue_stage_power_cc1  2855608940.3317 # total power usage of issue stage_cc1
avg_fetch_power_cc1          1.8374 # average power of fetch unit per cycle_cc1
avg_dispatch_power_cc1       1.9811 # average power of dispatch unit per cycle_cc1
avg_issue_power_cc1         96.1855 # average power of issue unit per cycle_cc1
total_power_cycle_cc1  4621812275.0622 # total power per cycle_cc1
avg_total_power_cycle_cc1     155.6765 # average total power per cycle_cc1
avg_total_power_insn_cc1      46.2181 # average total power per insn_cc1
rename_power_cc2       20441992.7987 # total power usage of rename unit_cc2
bpred_power_cc2              0.0000 # total power usage of bpred unit_cc2
window_power_cc2       361475212.4183 # total power usage of instruction window_cc2
lsq_power_cc2          33852348.5062 # total power usage of lsq_cc2
regfile_power_cc2      77737642.2597 # total power usage of arch. regfile_cc2
icache_power_cc2       54550335.2641 # total power usage of icache_cc2
dcache_power_cc2       78928517.8342 # total power usage of dcache_cc2
dcache2_power_cc2       174017.2646 # total power usage of dcache2_cc2
alu_power_cc2          270904170.9485 # total power usage of alu_cc2
resultbus_power_cc2    214982986.9782 # total power usage of resultbus_cc2
clock_power_cc2        413315348.8443 # total power usage of clock_cc2
avg_rename_power_cc2         0.6885 # avg power usage of rename unit_cc2
avg_bpred_power_cc2          0.0000 # avg power usage of bpred unit_cc2
avg_window_power_cc2        12.1756 # avg power usage of instruction window_cc2
avg_lsq_power_cc2            1.1402 # avg power usage of instruction lsq_cc2
avg_regfile_power_cc2        2.6184 # avg power usage of arch. regfile_cc2
avg_icache_power_cc2         1.8374 # avg power usage of icache_cc2
avg_dcache_power_cc2         2.6585 # avg power usage of dcache_cc2
avg_dcache2_power_cc2        0.0059 # avg power usage of dcache2_cc2
avg_alu_power_cc2            9.1249 # avg power usage of alu_cc2
avg_resultbus_power_cc2       7.2413 # avg power usage of resultbus_cc2
avg_clock_power_cc2         13.9217 # avg power usage of clock_cc2
fetch_stage_power_cc2  54550335.2641 # total power usage of fetch stage_cc2
dispatch_stage_power_cc2 20441992.7987 # total power usage of dispatch stage_cc2
issue_stage_power_cc2  960317253.9500 # total power usage of issue stage_cc2
avg_fetch_power_cc2          1.8374 # average power of fetch unit per cycle_cc2
avg_dispatch_power_cc2       0.6885 # average power of dispatch unit per cycle_cc2
avg_issue_power_cc2         32.3464 # average power of issue unit per cycle_cc2
total_power_cycle_cc2  1526362573.1169 # total power per cycle_cc2
avg_total_power_cycle_cc2      51.4125 # average total power per cycle_cc2
avg_total_power_insn_cc2      15.2636 # average total power per insn_cc2
rename_power_cc3       24270785.8507 # total power usage of rename unit_cc3
bpred_power_cc3        8456563.2402 # total power usage of bpred unit_cc3
window_power_cc3       371509766.4761 # total power usage of instruction window_cc3
lsq_power_cc3          54463430.2980 # total power usage of lsq_cc3
regfile_power_cc3      107004825.1118 # total power usage of arch. regfile_cc3
icache_power_cc3       58098845.6442 # total power usage of icache_cc3
dcache_power_cc3       103297007.9064 # total power usage of dcache_cc3
dcache2_power_cc3      9328208.6477 # total power usage of dcache2_cc3
alu_power_cc3          290499532.7007 # total power usage of alu_cc3
resultbus_power_cc3    223218785.2915 # total power usage of resultbus_cc3
clock_power_cc3        461632823.3242 # total power usage of clock_cc3
avg_rename_power_cc3         0.8175 # avg power usage of rename unit_cc3
avg_bpred_power_cc3          0.2848 # avg power usage of bpred unit_cc3
avg_window_power_cc3        12.5136 # avg power usage of instruction window_cc3
avg_lsq_power_cc3            1.8345 # avg power usage of instruction lsq_cc3
avg_regfile_power_cc3        3.6042 # avg power usage of arch. regfile_cc3
avg_icache_power_cc3         1.9569 # avg power usage of icache_cc3
avg_dcache_power_cc3         3.4794 # avg power usage of dcache_cc3
avg_dcache2_power_cc3        0.3142 # avg power usage of dcache2_cc3
avg_alu_power_cc3            9.7849 # avg power usage of alu_cc3
avg_resultbus_power_cc3       7.5187 # avg power usage of resultbus_cc3
avg_clock_power_cc3         15.5492 # avg power usage of clock_cc3
fetch_stage_power_cc3  66555408.8844 # total power usage of fetch stage_cc3
dispatch_stage_power_cc3 24270785.8507 # total power usage of dispatch stage_cc3
issue_stage_power_cc3  1052316731.3203 # total power usage of issue stage_cc3
avg_fetch_power_cc3          2.2418 # average power of fetch unit per cycle_cc3
avg_dispatch_power_cc3       0.8175 # average power of dispatch unit per cycle_cc3
avg_issue_power_cc3         35.4452 # average power of issue unit per cycle_cc3
total_power_cycle_cc3  1711780574.4913 # total power per cycle_cc3
avg_total_power_cycle_cc3      57.6579 # average total power per cycle_cc3
avg_total_power_insn_cc3      17.1178 # average total power per insn_cc3
total_rename_access       100000010 # total number accesses of rename unit
total_bpred_access                0 # total number accesses of bpred unit
total_window_access       341583628 # total number accesses of instruction window
total_lsq_access           24870743 # total number accesses of load/store queue
total_regfile_access      168763523 # total number accesses of arch. regfile
total_icache_access       106418571 # total number accesses of icache
total_dcache_access        24516157 # total number accesses of dcache
total_dcache2_access         224323 # total number accesses of dcache2
total_alu_access           99881247 # total number accesses of alu
total_resultbus_access    117116617 # total number accesses of resultbus
avg_rename_access            3.3683 # avg number accesses of rename unit
avg_bpred_access             0.0000 # avg number accesses of bpred unit
avg_window_access           11.5056 # avg number accesses of instruction window
avg_lsq_access               0.8377 # avg number accesses of lsq
avg_regfile_access           5.6845 # avg number accesses of arch. regfile
avg_icache_access            3.5845 # avg number accesses of icache
avg_dcache_access            0.8258 # avg number accesses of dcache
avg_dcache2_access           0.0076 # avg number accesses of dcache2
avg_alu_access               3.3643 # avg number accesses of alu
avg_resultbus_access         3.9448 # avg number accesses of resultbus
max_rename_access                16 # max number accesses of rename unit
max_bpred_access                  0 # max number accesses of bpred unit
max_window_access                48 # max number accesses of instruction window
max_lsq_access                    8 # max number accesses of load/store queue
max_regfile_access               44 # max number accesses of arch. regfile
max_icache_access                16 # max number accesses of icache
max_dcache_access                 8 # max number accesses of dcache
max_dcache2_access                6 # max number accesses of dcache2
max_alu_access                   13 # max number accesses of alu
max_resultbus_access             15 # max number accesses of resultbus
max_cycle_power_cc1        209.9841 # maximum cycle power usage of cc1
max_cycle_power_cc2        144.1737 # maximum cycle power usage of cc2
max_cycle_power_cc3        146.3797 # maximum cycle power usage of cc3
sim_invalid_addrs                 0 # total non-speculative bogus addresses seen (debug var)
ld_text_base           0x0120000000 # program text (code) segment base
ld_text_size                2596864 # program text (code) size in bytes
ld_data_base           0x0140000000 # program initialized data segment base
ld_data_size               59491504 # program init'ed `.data' and uninit'ed `.bss' size in bytes
ld_stack_base          0x011ff9b000 # program stack segment base (highest address in stack)
ld_stack_size                 16384 # program initial stack size
ld_prog_entry          0x0120177934 # program entry point (initial PC)
ld_environ_base        0x011ff96b70 # program environment base address address
ld_target_big_endian              0 # target executable endian-ness, non-zero if big endian
mem.page_count                 3655 # total number of pages allocated
mem.page_mem                 29240k # total size of memory pages allocated
mem.ptab_misses                3663 # total first level page table misses
mem.ptab_accesses         644654694 # total page table accesses
mem.ptab_miss_rate           0.0000 # first level page table miss rate

