sim-outorder: SimpleScalar/Alpha Tool Set version 3.0 of August, 2003.
Copyright (c) 1994-2003 by Todd M. Austin, Ph.D. and SimpleScalar, LLC.
All Rights Reserved. This version of SimpleScalar is licensed for academic
non-commercial use.  No portion of this work may be used by any commercial
entity, or for any commercial purpose, without the prior written permission
of SimpleScalar, LLC (info@simplescalar.com).


Processor Parameters:
Issue Width: 16
Window Size: 64
Number of Virtual Registers: 32
Number of Physical Registers: 64
Datapath Width: 64
Total Power Consumption: 230.639
Branch Predictor Power Consumption: 2.84842  (1.25%)
 branch target buffer power (W): 2.49493
 local predict power (W): 0.0867068
 global predict power (W): 0.0996078
 chooser power (W): 0.0702439
 RAS power (W): 0.0969383
Rename Logic Power Consumption: 3.27072  (1.43%)
 Instruction Decode Power (W): 0.0639661
 RAT decode_power (W): 0.454058
 RAT wordline_power (W): 0.227603
 RAT bitline_power (W): 2.30694
 DCL Comparators (W): 0.218151
Instruction Window Power Consumption: 43.216  (18.9%)
 tagdrive (W): 2.9395
 tagmatch (W): 0.989695
 Selection Logic (W): 0.225484
 decode_power (W): 0.976583
 wordline_power (W): 1.0557
 bitline_power (W): 37.0291
Load/Store Queue Power Consumption: 9.33077  (4.08%)
 tagdrive (W): 4.52311
 tagmatch (W): 1.71883
 decode_power (W): 0.162764
 wordline_power (W): 0.0433172
 bitline_power (W): 2.88275
Arch. Register File Power Consumption: 25.1387  (11%)
 decode_power (W): 0.454058
 wordline_power (W): 1.0557
 bitline_power (W): 23.629
Result Bus Power Consumption: 31.3281  (13.7%)
Total Clock Power: 61.271  (26.8%)
Int ALU Power: 4.66013  (2.04%)
FP ALU Power: 28.5621  (12.5%)
Instruction Cache Power Consumption: 2.76773  (1.21%)
 decode_power (W): 0.151353
 wordline_power (W): 0.180479
 bitline_power (W): 1.42251
 senseamp_power (W): 0.768
 tagarray_power (W): 0.245382
Itlb_power (W): 0.264936 (0.116%)
Data Cache Power Consumption: 11.0709  (4.84%)
 decode_power (W): 0.60541
 wordline_power (W): 0.721917
 bitline_power (W): 5.69006
 senseamp_power (W): 3.072
 tagarray_power (W): 0.981529
Dtlb_power (W): 1.80688 (0.79%)
Level 2 Cache Power Consumption: 3.10298 (1.36%)
 decode_power (W): 0.19487
 wordline_power (W): 0.0430878
 bitline_power (W): 1.77274
 senseamp_power (W): 0.192
 tagarray_power (W): 0.900275
sim: loading EIO file: ../benchmarks/301.apsi.spec_ref.eio.gz
sim: command line: ./sim-outorder -config ../configs/current.config ../benchmarks/301.apsi.spec_ref.eio.gz 

sim: simulation started @ Tue Nov 24 11:58:51 2015, options follow:

sim-outorder: This simulator implements a very detailed out-of-order issue
superscalar processor with a two-level memory system and speculative
execution support.  This simulator is a performance simulator, tracking the
latency of all pipeline operations.

# -config                     # load configuration from a file
# -dumpconfig                 # dump configuration to a file
# -h                    false # print help message    
# -v                    false # verbose operation     
# -d                    false # enable debug message  
# -i                    false # start in Dlite debugger
-seed                       1 # random number generator seed (0 for timer seed)
# -q                    false # initialize and terminate immediately
# -chkpt               <null> # restore EIO trace execution from <fname>
# -redir:sim     ../results/23_20_lsq/301.apsi.spec_ref.eio.gz.out # redirect simulator output to file (non-interactive only)
# -redir:prog       /dev/null # redirect simulated program output to file
-nice                       0 # simulator scheduling priority
-freq            600000000.0000 # frequency             
-max:inst           100000000 # maximum number of inst's to execute
-fastfwd                    0 # number of insts skipped before timing starts
# -ptrace              <null> # generate pipetrace, i.e., <fname|stdout|stderr> <range>
-fetch:ifqsize             16 # instruction fetch queue size (in insts)
-fetch:mplat               15 # extra branch mis-prediction latency
-fetch:speed                1 # speed of front-end of machine relative to execution core
-bpred                perfect # branch predictor type {nottaken|taken|perfect|bimod|2lev|comb}
-bpred:bimod     2048 # bimodal predictor config (<table size>)
-bpred:2lev      1 1024 4 0 # 2-level predictor config (<l1size> <l2size> <hist_size> <xor>)
-bpred:comb      1024 # combining predictor config (<meta_table_size>)
-bpred:ras                  8 # return address stack size (0 for no return stack)
-bpred:btb       512 4 # BTB config (<num_sets> <associativity>)
# -bpred:spec_update       <null> # speculative predictors update in {ID|WB} (default non-spec)
-decode:width              16 # instruction decode B/W (insts/cycle)
-issue:width               16 # instruction issue B/W (insts/cycle)
-issue:inorder          false # run pipeline with in-order issue
-issue:wrongpath         true # issue instructions down wrong execution paths
-commit:width              16 # instruction commit B/W (insts/cycle)
-ruu:size                  64 # register update unit (RUU) size
-lsq:size                  64 # load/store queue (LSQ) size
-cache:dl1       dl1:32:64:8:f # l1 data cache config, i.e., {<config>|none}
-cache:dl1lat               1 # l1 data cache hit latency (in cycles)
-cache:dl2       dl2:256:64:8:f # l2 data cache config, i.e., {<config>|none}
-cache:dl2lat               2 # l2 data cache hit latency (in cycles)
-cache:il1       il1:32:64:8:f # l1 inst cache config, i.e., {<config>|dl1|dl2|none}
-cache:il1lat               1 # l1 instruction cache hit latency (in cycles)
-cache:il2                dl2 # l2 instruction cache config, i.e., {<config>|dl2|none}
-cache:il2lat               2 # l2 instruction cache hit latency (in cycles)
-cache:flush            false # flush caches on system calls
-cache:icompress        false # convert 64-bit inst addresses to 32-bit inst equivalents
-mem:lat         103 1 # memory access latency (<first_chunk> <inter_chunk>)
-mem:width                  8 # memory access bus width (in bytes)
-tlb:itlb        itlb:16:4096:4:l # instruction TLB config, i.e., {<config>|none}
-tlb:dtlb        dtlb:32:4096:4:l # data TLB config, i.e., {<config>|none}
-tlb:lat                   30 # inst/data TLB miss latency (in cycles)
-res:ialu                   4 # total number of integer ALU's available
-res:imult                  2 # total number of integer multiplier/dividers available
-res:memport                4 # total number of memory system ports available (to CPU)
-res:fpalu                  8 # total number of floating point ALU's available
-res:fpmult                 2 # total number of floating point multiplier/dividers available
# -pcstat              <null> # profile stat(s) against text addr's (mult uses ok)
-bugcompat              false # operate in backward-compatible bugs mode (for testing only)

  Pipetrace range arguments are formatted as follows:

    {{@|#}<start>}:{{@|#|+}<end>}

  Both ends of the range are optional, if neither are specified, the entire
  execution is traced.  Ranges that start with a `@' designate an address
  range to be traced, those that start with an `#' designate a cycle count
  range.  All other range values represent an instruction count range.  The
  second argument, if specified with a `+', indicates a value relative
  to the first argument, e.g., 1000:+100 == 1000:1100.  Program symbols may
  be used in all contexts.

    Examples:   -ptrace FOO.trc #0:#1000
                -ptrace BAR.trc @2000:
                -ptrace BLAH.trc :1500
                -ptrace UXXE.trc :
                -ptrace FOOBAR.trc @main:+278

  Branch predictor configuration examples for 2-level predictor:
    Configurations:   N, M, W, X
      N   # entries in first level (# of shift register(s))
      W   width of shift register(s)
      M   # entries in 2nd level (# of counters, or other FSM)
      X   (yes-1/no-0) xor history and address for 2nd level index
    Sample predictors:
      GAg     : 1, W, 2^W, 0
      GAp     : 1, W, M (M > 2^W), 0
      PAg     : N, W, 2^W, 0
      PAp     : N, W, M (M == 2^(N+W)), 0
      gshare  : 1, W, 2^W, 1
  Predictor `comb' combines a bimodal and a 2-level predictor.

  The cache config parameter <config> has the following format:

    <name>:<nsets>:<bsize>:<assoc>:<repl>

    <name>   - name of the cache being defined
    <nsets>  - number of sets in the cache
    <bsize>  - block size of the cache
    <assoc>  - associativity of the cache
    <repl>   - block replacement strategy, 'l'-LRU, 'f'-FIFO, 'r'-random

    Examples:   -cache:dl1 dl1:4096:32:1:l
                -dtlb dtlb:128:4096:32:r

  Cache levels can be unified by pointing a level of the instruction cache
  hierarchy at the data cache hiearchy using the "dl1" and "dl2" cache
  configuration arguments.  Most sensible combinations are supported, e.g.,

    A unified l2 cache (il2 is pointed at dl2):
      -cache:il1 il1:128:64:1:l -cache:il2 dl2
      -cache:dl1 dl1:256:32:1:l -cache:dl2 ul2:1024:64:2:l

    Or, a fully unified cache hierarchy (il1 pointed at dl1):
      -cache:il1 dl1
      -cache:dl1 ul1:256:32:1:l -cache:dl2 ul2:1024:64:2:l



sim: ** starting performance simulation **

sim: ** simulation statistics **
sim_num_insn              100000000 # total number of instructions committed
sim_num_refs               38515084 # total number of loads and stores committed
sim_num_loads              24377603 # total number of loads committed
sim_num_stores         14137481.0000 # total number of stores committed
sim_num_branches            3576281 # total number of branches committed
sim_elapsed_time                111 # total simulation time in seconds
sim_inst_rate           900900.9009 # simulation speed (in insts/sec)
sim_total_insn            100000000 # total number of instructions executed
sim_total_refs             38515084 # total number of loads and stores executed
sim_total_loads            24377603 # total number of loads executed
sim_total_stores       14137481.0000 # total number of stores executed
sim_total_branches          3576281 # total number of branches executed
sim_cycle                  24784613 # total simulation time in cycles
sim_IPC                      4.0348 # instructions per cycle
sim_CPI                      0.2478 # cycles per instruction
sim_exec_BW                  4.0348 # total instructions (mis-spec + committed) per cycle
sim_IPB                     27.9620 # instruction per branch
IFQ_count                 304742193 # cumulative IFQ occupancy
IFQ_fcount                 18313790 # cumulative IFQ full count
ifq_occupancy               12.2956 # avg IFQ occupancy (insn's)
ifq_rate                     4.0348 # avg IFQ dispatch rate (insn/cycle)
ifq_latency                  3.0474 # avg IFQ occupant latency (cycle's)
ifq_full                     0.7389 # fraction of time (cycle's) IFQ was full
RUU_count                1323177245 # cumulative RUU occupancy
RUU_fcount                 16690467 # cumulative RUU full count
ruu_occupancy               53.3870 # avg RUU occupancy (insn's)
ruu_rate                     4.0348 # avg RUU dispatch rate (insn/cycle)
ruu_latency                 13.2318 # avg RUU occupant latency (cycle's)
ruu_full                     0.6734 # fraction of time (cycle's) RUU was full
LSQ_count                 525418821 # cumulative LSQ occupancy
LSQ_fcount                        0 # cumulative LSQ full count
lsq_occupancy               21.1994 # avg LSQ occupancy (insn's)
lsq_rate                     4.0348 # avg LSQ dispatch rate (insn/cycle)
lsq_latency                  5.2542 # avg LSQ occupant latency (cycle's)
lsq_full                     0.0000 # fraction of time (cycle's) LSQ was full
sim_slip                 1987110381 # total number of slip cycles
avg_sim_slip                19.8711 # the average slip between issue and retirement
il1.accesses              120902197 # total number of accesses
il1.hits                  119246314 # total number of hits
il1.misses                  1655883 # total number of misses
il1.replacements            1655627 # total number of replacements
il1.writebacks                    0 # total number of writebacks
il1.invalidations                 0 # total number of invalidations
il1.miss_rate                0.0137 # miss rate (i.e., misses/ref)
il1.repl_rate                0.0137 # replacement rate (i.e., repls/ref)
il1.wb_rate                  0.0000 # writeback rate (i.e., wrbks/ref)
il1.inv_rate                 0.0000 # invalidation rate (i.e., invs/ref)
dl1.accesses               38349740 # total number of accesses
dl1.hits                   37488608 # total number of hits
dl1.misses                   861132 # total number of misses
dl1.replacements             860876 # total number of replacements
dl1.writebacks               557100 # total number of writebacks
dl1.invalidations                 0 # total number of invalidations
dl1.miss_rate                0.0225 # miss rate (i.e., misses/ref)
dl1.repl_rate                0.0224 # replacement rate (i.e., repls/ref)
dl1.wb_rate                  0.0145 # writeback rate (i.e., wrbks/ref)
dl1.inv_rate                 0.0000 # invalidation rate (i.e., invs/ref)
dl2.accesses                3074115 # total number of accesses
dl2.hits                    2933827 # total number of hits
dl2.misses                   140288 # total number of misses
dl2.replacements             138240 # total number of replacements
dl2.writebacks               105777 # total number of writebacks
dl2.invalidations                 0 # total number of invalidations
dl2.miss_rate                0.0456 # miss rate (i.e., misses/ref)
dl2.repl_rate                0.0450 # replacement rate (i.e., repls/ref)
dl2.wb_rate                  0.0344 # writeback rate (i.e., wrbks/ref)
dl2.inv_rate                 0.0000 # invalidation rate (i.e., invs/ref)
itlb.accesses             120902197 # total number of accesses
itlb.hits                 120902173 # total number of hits
itlb.misses                      24 # total number of misses
itlb.replacements                 0 # total number of replacements
itlb.writebacks                   0 # total number of writebacks
itlb.invalidations                0 # total number of invalidations
itlb.miss_rate               0.0000 # miss rate (i.e., misses/ref)
itlb.repl_rate               0.0000 # replacement rate (i.e., repls/ref)
itlb.wb_rate                 0.0000 # writeback rate (i.e., wrbks/ref)
itlb.inv_rate                0.0000 # invalidation rate (i.e., invs/ref)
dtlb.accesses              38515065 # total number of accesses
dtlb.hits                  38513803 # total number of hits
dtlb.misses                    1262 # total number of misses
dtlb.replacements              1134 # total number of replacements
dtlb.writebacks                   0 # total number of writebacks
dtlb.invalidations                0 # total number of invalidations
dtlb.miss_rate               0.0000 # miss rate (i.e., misses/ref)
dtlb.repl_rate               0.0000 # replacement rate (i.e., repls/ref)
dtlb.wb_rate                 0.0000 # writeback rate (i.e., wrbks/ref)
dtlb.inv_rate                0.0000 # invalidation rate (i.e., invs/ref)
rename_power           81063492.7681 # total power usage of rename unit
bpred_power            70597103.1407 # total power usage of bpred unit
window_power           1071092569.5305 # total power usage of instruction window
lsq_power              231259575.3320 # total power usage of load/store queue
regfile_power          623054008.7573 # total power usage of arch. regfile
icache_power           75163408.3835 # total power usage of icache
dcache_power           319171192.9676 # total power usage of dcache
dcache2_power          76906078.4107 # total power usage of dcache2
alu_power              823399874.0804 # total power usage of alu
falu_power             707900344.8604 # total power usage of falu
resultbus_power        776455234.4972 # total power usage of resultbus
clock_power            1518577404.3155 # total power usage of clock
avg_rename_power             3.2707 # avg power usage of rename unit
avg_bpred_power              2.8484 # avg power usage of bpred unit
avg_window_power            43.2160 # avg power usage of instruction window
avg_lsq_power                9.3308 # avg power usage of lsq
avg_regfile_power           25.1387 # avg power usage of arch. regfile
avg_icache_power             3.0327 # avg power usage of icache
avg_dcache_power            12.8778 # avg power usage of dcache
avg_dcache2_power            3.1030 # avg power usage of dcache2
avg_alu_power               33.2222 # avg power usage of alu
avg_falu_power              28.5621 # avg power usage of falu
avg_resultbus_power         31.3281 # avg power usage of resultbus
avg_clock_power             61.2710 # avg power usage of clock
fetch_stage_power      145760511.5242 # total power usage of fetch stage
dispatch_stage_power   81063492.7681 # total power usage of dispatch stage
issue_stage_power      3298284524.8183 # total power usage of issue stage
avg_fetch_power              5.8811 # average power of fetch unit per cycle
avg_dispatch_power           3.2707 # average power of dispatch unit per cycle
avg_issue_power            133.0779 # average power of issue unit per cycle
total_power            5666739942.1833 # total power per cycle
avg_total_power_cycle      228.6394 # average total power per cycle
avg_total_power_cycle_nofp_nod2     196.9744 # average total power per cycle
avg_total_power_insn        56.6674 # average total power per insn
avg_total_power_insn_nofp_nod2      48.8193 # average total power per insn
rename_power_cc1       52042269.9807 # total power usage of rename unit_cc1
bpred_power_cc1              0.0000 # total power usage of bpred unit_cc1
window_power_cc1       796667894.1988 # total power usage of instruction window_cc1
lsq_power_cc1          98883952.4589 # total power usage of lsq_cc1
regfile_power_cc1      396427646.9494 # total power usage of arch. regfile_cc1
icache_power_cc1       49752232.9025 # total power usage of icache_cc1
dcache_power_cc1       199465520.0783 # total power usage of dcache_cc1
dcache2_power_cc1      7119530.4139 # total power usage of dcache2_cc1
alu_power_cc1          350482223.7208 # total power usage of alu_cc1
resultbus_power_cc1    593493010.8632 # total power usage of resultbus_cc1
clock_power_cc1        938677788.2530 # total power usage of clock_cc1
avg_rename_power_cc1         2.0998 # avg power usage of rename unit_cc1
avg_bpred_power_cc1          0.0000 # avg power usage of bpred unit_cc1
avg_window_power_cc1        32.1436 # avg power usage of instruction window_cc1
avg_lsq_power_cc1            3.9897 # avg power usage of lsq_cc1
avg_regfile_power_cc1       15.9949 # avg power usage of arch. regfile_cc1
avg_icache_power_cc1         2.0074 # avg power usage of icache_cc1
avg_dcache_power_cc1         8.0480 # avg power usage of dcache_cc1
avg_dcache2_power_cc1        0.2873 # avg power usage of dcache2_cc1
avg_alu_power_cc1           14.1411 # avg power usage of alu_cc1
avg_resultbus_power_cc1      23.9460 # avg power usage of resultbus_cc1
avg_clock_power_cc1         37.8734 # avg power usage of clock_cc1
fetch_stage_power_cc1  49752232.9025 # total power usage of fetch stage_cc1
dispatch_stage_power_cc1 52042269.9807 # total power usage of dispatch stage_cc1
issue_stage_power_cc1  2046112131.7338 # total power usage of issue stage_cc1
avg_fetch_power_cc1          2.0074 # average power of fetch unit per cycle_cc1
avg_dispatch_power_cc1       2.0998 # average power of dispatch unit per cycle_cc1
avg_issue_power_cc1         82.5557 # average power of issue unit per cycle_cc1
total_power_cycle_cc1  3483012069.8194 # total power per cycle_cc1
avg_total_power_cycle_cc1     140.5312 # average total power per cycle_cc1
avg_total_power_insn_cc1      34.8301 # average total power per insn_cc1
rename_power_cc2       20441990.7553 # total power usage of rename unit_cc2
bpred_power_cc2              0.0000 # total power usage of bpred unit_cc2
window_power_cc2       378984121.6843 # total power usage of instruction window_cc2
lsq_power_cc2          47811762.7854 # total power usage of lsq_cc2
regfile_power_cc2      67293529.5154 # total power usage of arch. regfile_cc2
icache_power_cc2       49752232.9025 # total power usage of icache_cc2
dcache_power_cc2       123465033.1825 # total power usage of dcache_cc2
dcache2_power_cc2      2384726.8600 # total power usage of dcache2_cc2
alu_power_cc2          168116839.5270 # total power usage of alu_cc2
resultbus_power_cc2    221746640.3463 # total power usage of resultbus_cc2
clock_power_cc2        398664145.5649 # total power usage of clock_cc2
avg_rename_power_cc2         0.8248 # avg power usage of rename unit_cc2
avg_bpred_power_cc2          0.0000 # avg power usage of bpred unit_cc2
avg_window_power_cc2        15.2911 # avg power usage of instruction window_cc2
avg_lsq_power_cc2            1.9291 # avg power usage of instruction lsq_cc2
avg_regfile_power_cc2        2.7151 # avg power usage of arch. regfile_cc2
avg_icache_power_cc2         2.0074 # avg power usage of icache_cc2
avg_dcache_power_cc2         4.9815 # avg power usage of dcache_cc2
avg_dcache2_power_cc2        0.0962 # avg power usage of dcache2_cc2
avg_alu_power_cc2            6.7831 # avg power usage of alu_cc2
avg_resultbus_power_cc2       8.9469 # avg power usage of resultbus_cc2
avg_clock_power_cc2         16.0851 # avg power usage of clock_cc2
fetch_stage_power_cc2  49752232.9025 # total power usage of fetch stage_cc2
dispatch_stage_power_cc2 20441990.7553 # total power usage of dispatch stage_cc2
issue_stage_power_cc2  942509124.3856 # total power usage of issue stage_cc2
avg_fetch_power_cc2          2.0074 # average power of fetch unit per cycle_cc2
avg_dispatch_power_cc2       0.8248 # average power of dispatch unit per cycle_cc2
avg_issue_power_cc2         38.0280 # average power of issue unit per cycle_cc2
total_power_cycle_cc2  1478661023.1237 # total power per cycle_cc2
avg_total_power_cycle_cc2      59.6604 # average total power per cycle_cc2
avg_total_power_insn_cc2      14.7866 # average total power per insn_cc2
rename_power_cc3       23344113.0409 # total power usage of rename unit_cc3
bpred_power_cc3        7059710.3093 # total power usage of bpred unit_cc3
window_power_cc3       397870789.7504 # total power usage of instruction window_cc3
lsq_power_cc3          60759719.5730 # total power usage of lsq_cc3
regfile_power_cc3      85943666.0747 # total power usage of arch. regfile_cc3
icache_power_cc3       52293350.4600 # total power usage of icache_cc3
dcache_power_cc3       136008559.0744 # total power usage of dcache_cc3
dcache2_power_cc3      9372940.8502 # total power usage of dcache2_cc3
alu_power_cc3          215408604.5075 # total power usage of alu_cc3
resultbus_power_cc3    236086242.7541 # total power usage of resultbus_cc3
clock_power_cc3        450645403.5025 # total power usage of clock_cc3
avg_rename_power_cc3         0.9419 # avg power usage of rename unit_cc3
avg_bpred_power_cc3          0.2848 # avg power usage of bpred unit_cc3
avg_window_power_cc3        16.0531 # avg power usage of instruction window_cc3
avg_lsq_power_cc3            2.4515 # avg power usage of instruction lsq_cc3
avg_regfile_power_cc3        3.4676 # avg power usage of arch. regfile_cc3
avg_icache_power_cc3         2.1099 # avg power usage of icache_cc3
avg_dcache_power_cc3         5.4876 # avg power usage of dcache_cc3
avg_dcache2_power_cc3        0.3782 # avg power usage of dcache2_cc3
avg_alu_power_cc3            8.6912 # avg power usage of alu_cc3
avg_resultbus_power_cc3       9.5255 # avg power usage of resultbus_cc3
avg_clock_power_cc3         18.1825 # avg power usage of clock_cc3
fetch_stage_power_cc3  59353060.7693 # total power usage of fetch stage_cc3
dispatch_stage_power_cc3 23344113.0409 # total power usage of dispatch stage_cc3
issue_stage_power_cc3  1055506856.5097 # total power usage of issue stage_cc3
avg_fetch_power_cc3          2.3948 # average power of fetch unit per cycle_cc3
avg_dispatch_power_cc3       0.9419 # average power of dispatch unit per cycle_cc3
avg_issue_power_cc3         42.5872 # average power of issue unit per cycle_cc3
total_power_cycle_cc3  1674793099.8971 # total power per cycle_cc3
avg_total_power_cycle_cc3      67.5739 # average total power per cycle_cc3
avg_total_power_insn_cc3      16.7479 # average total power per insn_cc3
total_rename_access       100000000 # total number accesses of rename unit
total_bpred_access                0 # total number accesses of bpred unit
total_window_access       352199654 # total number accesses of instruction window
total_lsq_access           38680390 # total number accesses of load/store queue
total_regfile_access      142815923 # total number accesses of arch. regfile
total_icache_access       120902197 # total number accesses of icache
total_dcache_access        38349740 # total number accesses of dcache
total_dcache2_access        3074115 # total number accesses of dcache2
total_alu_access           99682410 # total number accesses of alu
total_resultbus_access    120801263 # total number accesses of resultbus
avg_rename_access            4.0348 # avg number accesses of rename unit
avg_bpred_access             0.0000 # avg number accesses of bpred unit
avg_window_access           14.2104 # avg number accesses of instruction window
avg_lsq_access               1.5607 # avg number accesses of lsq
avg_regfile_access           5.7623 # avg number accesses of arch. regfile
avg_icache_access            4.8781 # avg number accesses of icache
avg_dcache_access            1.5473 # avg number accesses of dcache
avg_dcache2_access           0.1240 # avg number accesses of dcache2
avg_alu_access               4.0219 # avg number accesses of alu
avg_resultbus_access         4.8740 # avg number accesses of resultbus
max_rename_access                16 # max number accesses of rename unit
max_bpred_access                  0 # max number accesses of bpred unit
max_window_access                53 # max number accesses of instruction window
max_lsq_access                   13 # max number accesses of load/store queue
max_regfile_access               45 # max number accesses of arch. regfile
max_icache_access                16 # max number accesses of icache
max_dcache_access                 8 # max number accesses of dcache
max_dcache2_access               12 # max number accesses of dcache2
max_alu_access                   14 # max number accesses of alu
max_resultbus_access             17 # max number accesses of resultbus
max_cycle_power_cc1        200.8779 # maximum cycle power usage of cc1
max_cycle_power_cc2        146.3847 # maximum cycle power usage of cc2
max_cycle_power_cc3        148.7336 # maximum cycle power usage of cc3
sim_invalid_addrs                 0 # total non-speculative bogus addresses seen (debug var)
ld_text_base           0x0120000000 # program text (code) segment base
ld_text_size                1114112 # program text (code) size in bytes
ld_data_base           0x0140000000 # program initialized data segment base
ld_data_size              200219296 # program init'ed `.data' and uninit'ed `.bss' size in bytes
ld_stack_base          0x011ff9b000 # program stack segment base (highest address in stack)
ld_stack_size                 16384 # program initial stack size
ld_prog_entry          0x01200603e8 # program entry point (initial PC)
ld_environ_base        0x011ff96500 # program environment base address address
ld_target_big_endian              0 # target executable endian-ness, non-zero if big endian
mem.page_count                24583 # total number of pages allocated
mem.page_mem                196664k # total size of memory pages allocated
mem.ptab_misses               24605 # total first level page table misses
mem.ptab_accesses        1235776570 # total page table accesses
mem.ptab_miss_rate           0.0000 # first level page table miss rate

