sim-outorder: SimpleScalar/Alpha Tool Set version 3.0 of August, 2003.
Copyright (c) 1994-2003 by Todd M. Austin, Ph.D. and SimpleScalar, LLC.
All Rights Reserved. This version of SimpleScalar is licensed for academic
non-commercial use.  No portion of this work may be used by any commercial
entity, or for any commercial purpose, without the prior written permission
of SimpleScalar, LLC (info@simplescalar.com).


Processor Parameters:
Issue Width: 4
Window Size: 16
Number of Virtual Registers: 32
Number of Physical Registers: 16
Datapath Width: 64
Total Power Consumption: 72.3917
Branch Predictor Power Consumption: 2.79653  (3.97%)
 branch target buffer power (W): 2.49493
 local predict power (W): 0.0348099
 global predict power (W): 0.0996078
 chooser power (W): 0.0702439
 RAS power (W): 0.0969383
Rename Logic Power Consumption: 0.417965  (0.594%)
 Instruction Decode Power (W): 0.0159915
 RAT decode_power (W): 0.113514
 RAT wordline_power (W): 0.0307815
 RAT bitline_power (W): 0.246771
 DCL Comparators (W): 0.0109075
Instruction Window Power Consumption: 2.20432  (3.13%)
 tagdrive (W): 0.0943488
 tagmatch (W): 0.033695
 Selection Logic (W): 0.0134217
 decode_power (W): 0.0532503
 wordline_power (W): 0.0844643
 bitline_power (W): 1.92514
Load/Store Queue Power Consumption: 0.96318  (1.37%)
 tagdrive (W): 0.457232
 tagmatch (W): 0.100774
 decode_power (W): 0.00799577
 wordline_power (W): 0.0150119
 bitline_power (W): 0.382166
Arch. Register File Power Consumption: 3.57247  (5.08%)
 decode_power (W): 0.113514
 wordline_power (W): 0.0844643
 bitline_power (W): 3.37449
Result Bus Power Consumption: 2.29754  (3.26%)
Total Clock Power: 26.6243  (37.8%)
Int ALU Power: 4.66013  (6.62%)
FP ALU Power: 14.281  (20.3%)
Instruction Cache Power Consumption: 2.76773  (3.93%)
 decode_power (W): 0.151353
 wordline_power (W): 0.180479
 bitline_power (W): 1.42251
 senseamp_power (W): 0.768
 tagarray_power (W): 0.245382
Itlb_power (W): 0.264834 (0.376%)
Data Cache Power Consumption: 5.53546  (7.86%)
 decode_power (W): 0.302705
 wordline_power (W): 0.360958
 bitline_power (W): 2.84503
 senseamp_power (W): 1.536
 tagarray_power (W): 0.490764
Dtlb_power (W): 0.903238 (1.28%)
Level 2 Cache Power Consumption: 3.10298 (4.41%)
 decode_power (W): 0.19487
 wordline_power (W): 0.0430878
 bitline_power (W): 1.77274
 senseamp_power (W): 0.192
 tagarray_power (W): 0.900275
sim: loading EIO file: ../benchmarks/173.applu.spec_ref.eio.gz
sim: command line: ./sim-outorder -config ../configs/current.config ../benchmarks/173.applu.spec_ref.eio.gz 

sim: simulation started @ Mon Nov 23 19:07:29 2015, options follow:

sim-outorder: This simulator implements a very detailed out-of-order issue
superscalar processor with a two-level memory system and speculative
execution support.  This simulator is a performance simulator, tracking the
latency of all pipeline operations.

# -config                     # load configuration from a file
# -dumpconfig                 # dump configuration to a file
# -h                    false # print help message    
# -v                    false # verbose operation     
# -d                    false # enable debug message  
# -i                    false # start in Dlite debugger
-seed                       1 # random number generator seed (0 for timer seed)
# -q                    false # initialize and terminate immediately
# -chkpt               <null> # restore EIO trace execution from <fname>
# -redir:sim     ../results/01_00_baseline/173.applu.spec_ref.eio.gz.out # redirect simulator output to file (non-interactive only)
# -redir:prog       /dev/null # redirect simulated program output to file
-nice                       0 # simulator scheduling priority
-freq            600000000.0000 # frequency             
-max:inst           100000000 # maximum number of inst's to execute
-fastfwd                    0 # number of insts skipped before timing starts
# -ptrace              <null> # generate pipetrace, i.e., <fname|stdout|stderr> <range>
-fetch:ifqsize              4 # instruction fetch queue size (in insts)
-fetch:mplat                3 # extra branch mis-prediction latency
-fetch:speed                1 # speed of front-end of machine relative to execution core
-bpred                perfect # branch predictor type {nottaken|taken|perfect|bimod|2lev|comb}
-bpred:bimod     2048 # bimodal predictor config (<table size>)
-bpred:2lev      1 256 2 0 # 2-level predictor config (<l1size> <l2size> <hist_size> <xor>)
-bpred:comb      1024 # combining predictor config (<meta_table_size>)
-bpred:ras                  8 # return address stack size (0 for no return stack)
-bpred:btb       512 4 # BTB config (<num_sets> <associativity>)
# -bpred:spec_update       <null> # speculative predictors update in {ID|WB} (default non-spec)
-decode:width               4 # instruction decode B/W (insts/cycle)
-issue:width                4 # instruction issue B/W (insts/cycle)
-issue:inorder          false # run pipeline with in-order issue
-issue:wrongpath         true # issue instructions down wrong execution paths
-commit:width               4 # instruction commit B/W (insts/cycle)
-ruu:size                  16 # register update unit (RUU) size
-lsq:size                   8 # load/store queue (LSQ) size
-cache:dl1       dl1:32:64:8:f # l1 data cache config, i.e., {<config>|none}
-cache:dl1lat               1 # l1 data cache hit latency (in cycles)
-cache:dl2       dl2:256:64:8:f # l2 data cache config, i.e., {<config>|none}
-cache:dl2lat               2 # l2 data cache hit latency (in cycles)
-cache:il1       il1:32:64:8:f # l1 inst cache config, i.e., {<config>|dl1|dl2|none}
-cache:il1lat               1 # l1 instruction cache hit latency (in cycles)
-cache:il2                dl2 # l2 instruction cache config, i.e., {<config>|dl2|none}
-cache:il2lat               2 # l2 instruction cache hit latency (in cycles)
-cache:flush            false # flush caches on system calls
-cache:icompress        false # convert 64-bit inst addresses to 32-bit inst equivalents
-mem:lat         103 1 # memory access latency (<first_chunk> <inter_chunk>)
-mem:width                  8 # memory access bus width (in bytes)
-tlb:itlb        itlb:16:4096:4:l # instruction TLB config, i.e., {<config>|none}
-tlb:dtlb        dtlb:32:4096:4:l # data TLB config, i.e., {<config>|none}
-tlb:lat                   30 # inst/data TLB miss latency (in cycles)
-res:ialu                   4 # total number of integer ALU's available
-res:imult                  1 # total number of integer multiplier/dividers available
-res:memport                2 # total number of memory system ports available (to CPU)
-res:fpalu                  4 # total number of floating point ALU's available
-res:fpmult                 1 # total number of floating point multiplier/dividers available
# -pcstat              <null> # profile stat(s) against text addr's (mult uses ok)
-bugcompat              false # operate in backward-compatible bugs mode (for testing only)

  Pipetrace range arguments are formatted as follows:

    {{@|#}<start>}:{{@|#|+}<end>}

  Both ends of the range are optional, if neither are specified, the entire
  execution is traced.  Ranges that start with a `@' designate an address
  range to be traced, those that start with an `#' designate a cycle count
  range.  All other range values represent an instruction count range.  The
  second argument, if specified with a `+', indicates a value relative
  to the first argument, e.g., 1000:+100 == 1000:1100.  Program symbols may
  be used in all contexts.

    Examples:   -ptrace FOO.trc #0:#1000
                -ptrace BAR.trc @2000:
                -ptrace BLAH.trc :1500
                -ptrace UXXE.trc :
                -ptrace FOOBAR.trc @main:+278

  Branch predictor configuration examples for 2-level predictor:
    Configurations:   N, M, W, X
      N   # entries in first level (# of shift register(s))
      W   width of shift register(s)
      M   # entries in 2nd level (# of counters, or other FSM)
      X   (yes-1/no-0) xor history and address for 2nd level index
    Sample predictors:
      GAg     : 1, W, 2^W, 0
      GAp     : 1, W, M (M > 2^W), 0
      PAg     : N, W, 2^W, 0
      PAp     : N, W, M (M == 2^(N+W)), 0
      gshare  : 1, W, 2^W, 1
  Predictor `comb' combines a bimodal and a 2-level predictor.

  The cache config parameter <config> has the following format:

    <name>:<nsets>:<bsize>:<assoc>:<repl>

    <name>   - name of the cache being defined
    <nsets>  - number of sets in the cache
    <bsize>  - block size of the cache
    <assoc>  - associativity of the cache
    <repl>   - block replacement strategy, 'l'-LRU, 'f'-FIFO, 'r'-random

    Examples:   -cache:dl1 dl1:4096:32:1:l
                -dtlb dtlb:128:4096:32:r

  Cache levels can be unified by pointing a level of the instruction cache
  hierarchy at the data cache hiearchy using the "dl1" and "dl2" cache
  configuration arguments.  Most sensible combinations are supported, e.g.,

    A unified l2 cache (il2 is pointed at dl2):
      -cache:il1 il1:128:64:1:l -cache:il2 dl2
      -cache:dl1 dl1:256:32:1:l -cache:dl2 ul2:1024:64:2:l

    Or, a fully unified cache hierarchy (il1 pointed at dl1):
      -cache:il1 dl1
      -cache:dl1 ul1:256:32:1:l -cache:dl2 ul2:1024:64:2:l



sim: ** starting performance simulation **

sim: ** simulation statistics **
sim_num_insn              100000002 # total number of instructions committed
sim_num_refs               40558484 # total number of loads and stores committed
sim_num_loads              30197385 # total number of loads committed
sim_num_stores         10361099.0000 # total number of stores committed
sim_num_branches             565233 # total number of branches committed
sim_elapsed_time                145 # total simulation time in seconds
sim_inst_rate           689655.1862 # simulation speed (in insts/sec)
sim_total_insn            100000002 # total number of instructions executed
sim_total_refs             40558484 # total number of loads and stores executed
sim_total_loads            30197385 # total number of loads executed
sim_total_stores       10361099.0000 # total number of stores executed
sim_total_branches           565233 # total number of branches executed
sim_cycle                 173897060 # total simulation time in cycles
sim_IPC                      0.5751 # instructions per cycle
sim_CPI                      1.7390 # cycles per instruction
sim_exec_BW                  0.5751 # total instructions (mis-spec + committed) per cycle
sim_IPB                    176.9182 # instruction per branch
IFQ_count                 668275060 # cumulative IFQ occupancy
IFQ_fcount                166378205 # cumulative IFQ full count
ifq_occupancy                3.8429 # avg IFQ occupancy (insn's)
ifq_rate                     0.5751 # avg IFQ dispatch rate (insn/cycle)
ifq_latency                  6.6828 # avg IFQ occupant latency (cycle's)
ifq_full                     0.9568 # fraction of time (cycle's) IFQ was full
RUU_count                2430710556 # cumulative RUU occupancy
RUU_fcount                 88944034 # cumulative RUU full count
ruu_occupancy               13.9779 # avg RUU occupancy (insn's)
ruu_rate                     0.5751 # avg RUU dispatch rate (insn/cycle)
ruu_latency                 24.3071 # avg RUU occupant latency (cycle's)
ruu_full                     0.5115 # fraction of time (cycle's) RUU was full
LSQ_count                1149302672 # cumulative LSQ occupancy
LSQ_fcount                 87914943 # cumulative LSQ full count
lsq_occupancy                6.6091 # avg LSQ occupancy (insn's)
lsq_rate                     0.5751 # avg LSQ dispatch rate (insn/cycle)
lsq_latency                 11.4930 # avg LSQ occupant latency (cycle's)
lsq_full                     0.5056 # fraction of time (cycle's) LSQ was full
sim_slip                 3720571641 # total number of slip cycles
avg_sim_slip                37.2057 # the average slip between issue and retirement
il1.accesses              101754353 # total number of accesses
il1.hits                  100574096 # total number of hits
il1.misses                  1180257 # total number of misses
il1.replacements            1180001 # total number of replacements
il1.writebacks                    0 # total number of writebacks
il1.invalidations                 0 # total number of invalidations
il1.miss_rate                0.0116 # miss rate (i.e., misses/ref)
il1.repl_rate                0.0116 # replacement rate (i.e., repls/ref)
il1.wb_rate                  0.0000 # writeback rate (i.e., wrbks/ref)
il1.inv_rate                 0.0000 # invalidation rate (i.e., invs/ref)
dl1.accesses               40558116 # total number of accesses
dl1.hits                   37704037 # total number of hits
dl1.misses                  2854079 # total number of misses
dl1.replacements            2853823 # total number of replacements
dl1.writebacks              1413176 # total number of writebacks
dl1.invalidations                 0 # total number of invalidations
dl1.miss_rate                0.0704 # miss rate (i.e., misses/ref)
dl1.repl_rate                0.0704 # replacement rate (i.e., repls/ref)
dl1.wb_rate                  0.0348 # writeback rate (i.e., wrbks/ref)
dl1.inv_rate                 0.0000 # invalidation rate (i.e., invs/ref)
dl2.accesses                5447512 # total number of accesses
dl2.hits                    3525899 # total number of hits
dl2.misses                  1921613 # total number of misses
dl2.replacements            1919565 # total number of replacements
dl2.writebacks              1009841 # total number of writebacks
dl2.invalidations                 0 # total number of invalidations
dl2.miss_rate                0.3528 # miss rate (i.e., misses/ref)
dl2.repl_rate                0.3524 # replacement rate (i.e., repls/ref)
dl2.wb_rate                  0.1854 # writeback rate (i.e., wrbks/ref)
dl2.inv_rate                 0.0000 # invalidation rate (i.e., invs/ref)
itlb.accesses             101754353 # total number of accesses
itlb.hits                 101754303 # total number of hits
itlb.misses                      50 # total number of misses
itlb.replacements                 1 # total number of replacements
itlb.writebacks                   0 # total number of writebacks
itlb.invalidations                0 # total number of invalidations
itlb.miss_rate               0.0000 # miss rate (i.e., misses/ref)
itlb.repl_rate               0.0000 # replacement rate (i.e., repls/ref)
itlb.wb_rate                 0.0000 # writeback rate (i.e., wrbks/ref)
itlb.inv_rate                0.0000 # invalidation rate (i.e., invs/ref)
dtlb.accesses              40558481 # total number of accesses
dtlb.hits                  40226713 # total number of hits
dtlb.misses                  331768 # total number of misses
dtlb.replacements            331640 # total number of replacements
dtlb.writebacks                   0 # total number of writebacks
dtlb.invalidations                0 # total number of invalidations
dtlb.miss_rate               0.0082 # miss rate (i.e., misses/ref)
dtlb.repl_rate               0.0082 # replacement rate (i.e., repls/ref)
dtlb.wb_rate                 0.0000 # writeback rate (i.e., wrbks/ref)
dtlb.inv_rate                0.0000 # invalidation rate (i.e., invs/ref)
rename_power           72682969.3101 # total power usage of rename unit
bpred_power            486307963.8449 # total power usage of bpred unit
window_power           383324666.0114 # total power usage of instruction window
lsq_power              167494167.9862 # total power usage of load/store queue
regfile_power          621242394.7854 # total power usage of arch. regfile
icache_power           527353797.7819 # total power usage of icache
dcache_power           1119670266.9102 # total power usage of dcache
dcache2_power          539598540.0560 # total power usage of dcache2
alu_power              3293814723.8908 # total power usage of alu
falu_power             2483431732.1361 # total power usage of falu
resultbus_power        399535952.9772 # total power usage of resultbus
clock_power            4629880140.0995 # total power usage of clock
avg_rename_power             0.4180 # avg power usage of rename unit
avg_bpred_power              2.7965 # avg power usage of bpred unit
avg_window_power             2.2043 # avg power usage of instruction window
avg_lsq_power                0.9632 # avg power usage of lsq
avg_regfile_power            3.5725 # avg power usage of arch. regfile
avg_icache_power             3.0326 # avg power usage of icache
avg_dcache_power             6.4387 # avg power usage of dcache
avg_dcache2_power            3.1030 # avg power usage of dcache2
avg_alu_power               18.9412 # avg power usage of alu
avg_falu_power              14.2810 # avg power usage of falu
avg_resultbus_power          2.2975 # avg power usage of resultbus
avg_clock_power             26.6243 # avg power usage of clock
fetch_stage_power      1013661761.6269 # total power usage of fetch stage
dispatch_stage_power   72682969.3101 # total power usage of dispatch stage
issue_stage_power      5903438317.8319 # total power usage of issue stage
avg_fetch_power              5.8291 # average power of fetch unit per cycle
avg_dispatch_power           0.4180 # average power of dispatch unit per cycle
avg_issue_power             33.9479 # average power of issue unit per cycle
total_power            12240905583.6538 # total power per cycle
avg_total_power_cycle       70.3917 # average total power per cycle
avg_total_power_cycle_nofp_nod2      53.0077 # average total power per cycle
avg_total_power_insn       122.4091 # average total power per insn
avg_total_power_insn_nofp_nod2      92.1788 # average total power per insn
rename_power_cc1       14869049.8803 # total power usage of rename unit_cc1
bpred_power_cc1              0.0000 # total power usage of bpred unit_cc1
window_power_cc1       116908771.4007 # total power usage of instruction window_cc1
lsq_power_cc1          16008132.3539 # total power usage of lsq_cc1
regfile_power_cc1      119086415.2035 # total power usage of arch. regfile_cc1
icache_power_cc1       108622815.0777 # total power usage of icache_cc1
dcache_power_cc1       185237868.4617 # total power usage of dcache_cc1
dcache2_power_cc1      12115727.9563 # total power usage of dcache2_cc1
alu_power_cc1          663396198.7904 # total power usage of alu_cc1
resultbus_power_cc1    106176808.4937 # total power usage of resultbus_cc1
clock_power_cc1        836064909.3456 # total power usage of clock_cc1
avg_rename_power_cc1         0.0855 # avg power usage of rename unit_cc1
avg_bpred_power_cc1          0.0000 # avg power usage of bpred unit_cc1
avg_window_power_cc1         0.6723 # avg power usage of instruction window_cc1
avg_lsq_power_cc1            0.0921 # avg power usage of lsq_cc1
avg_regfile_power_cc1        0.6848 # avg power usage of arch. regfile_cc1
avg_icache_power_cc1         0.6246 # avg power usage of icache_cc1
avg_dcache_power_cc1         1.0652 # avg power usage of dcache_cc1
avg_dcache2_power_cc1        0.0697 # avg power usage of dcache2_cc1
avg_alu_power_cc1            3.8149 # avg power usage of alu_cc1
avg_resultbus_power_cc1       0.6106 # avg power usage of resultbus_cc1
avg_clock_power_cc1          4.8078 # avg power usage of clock_cc1
fetch_stage_power_cc1  108622815.0777 # total power usage of fetch stage_cc1
dispatch_stage_power_cc1 14869049.8803 # total power usage of dispatch stage_cc1
issue_stage_power_cc1  1099843507.4567 # total power usage of issue stage_cc1
avg_fetch_power_cc1          0.6246 # average power of fetch unit per cycle_cc1
avg_dispatch_power_cc1       0.0855 # average power of dispatch unit per cycle_cc1
avg_issue_power_cc1          6.3247 # average power of issue unit per cycle_cc1
total_power_cycle_cc1  2178486696.9639 # total power per cycle_cc1
avg_total_power_cycle_cc1      12.5274 # average total power per cycle_cc1
avg_total_power_insn_cc1      21.7849 # average total power per insn_cc1
rename_power_cc2       10449137.3759 # total power usage of rename unit_cc2
bpred_power_cc2              0.0000 # total power usage of bpred unit_cc2
window_power_cc2       91153809.5430 # total power usage of instruction window_cc2
lsq_power_cc2          10304828.7716 # total power usage of lsq_cc2
regfile_power_cc2      61964778.1709 # total power usage of arch. regfile_cc2
icache_power_cc2       108622815.0777 # total power usage of icache_cc2
dcache_power_cc2       130570685.2694 # total power usage of dcache_cc2
dcache2_power_cc2      8451751.6012 # total power usage of dcache2_cc2
alu_power_cc2          240493741.7932 # total power usage of alu_cc2
resultbus_power_cc2    69805173.8130 # total power usage of resultbus_cc2
clock_power_cc2        456263564.1173 # total power usage of clock_cc2
avg_rename_power_cc2         0.0601 # avg power usage of rename unit_cc2
avg_bpred_power_cc2          0.0000 # avg power usage of bpred unit_cc2
avg_window_power_cc2         0.5242 # avg power usage of instruction window_cc2
avg_lsq_power_cc2            0.0593 # avg power usage of instruction lsq_cc2
avg_regfile_power_cc2        0.3563 # avg power usage of arch. regfile_cc2
avg_icache_power_cc2         0.6246 # avg power usage of icache_cc2
avg_dcache_power_cc2         0.7509 # avg power usage of dcache_cc2
avg_dcache2_power_cc2        0.0486 # avg power usage of dcache2_cc2
avg_alu_power_cc2            1.3830 # avg power usage of alu_cc2
avg_resultbus_power_cc2       0.4014 # avg power usage of resultbus_cc2
avg_clock_power_cc2          2.6238 # avg power usage of clock_cc2
fetch_stage_power_cc2  108622815.0777 # total power usage of fetch stage_cc2
dispatch_stage_power_cc2 10449137.3759 # total power usage of dispatch stage_cc2
issue_stage_power_cc2  550779990.7913 # total power usage of issue stage_cc2
avg_fetch_power_cc2          0.6246 # average power of fetch unit per cycle_cc2
avg_dispatch_power_cc2       0.0601 # average power of dispatch unit per cycle_cc2
avg_issue_power_cc2          3.1673 # average power of issue unit per cycle_cc2
total_power_cycle_cc2  1188080285.5332 # total power per cycle_cc2
avg_total_power_cycle_cc2       6.8321 # average total power per cycle_cc2
avg_total_power_insn_cc2      11.8808 # average total power per insn_cc2
rename_power_cc3       16230529.2857 # total power usage of rename unit_cc3
bpred_power_cc3        48630796.5718 # total power usage of bpred unit_cc3
window_power_cc3       117848885.8545 # total power usage of instruction window_cc3
lsq_power_cc3          25418554.6146 # total power usage of lsq_cc3
regfile_power_cc3      110618129.6679 # total power usage of arch. regfile_cc3
icache_power_cc3       150495913.3471 # total power usage of icache_cc3
dcache_power_cc3       224630420.3678 # total power usage of dcache_cc3
dcache2_power_cc3      61221325.9376 # total power usage of dcache2_cc3
alu_power_cc3          503535593.3007 # total power usage of alu_cc3
resultbus_power_cc3    98664890.2581 # total power usage of resultbus_cc3
clock_power_cc3        834799247.0122 # total power usage of clock_cc3
avg_rename_power_cc3         0.0933 # avg power usage of rename unit_cc3
avg_bpred_power_cc3          0.2797 # avg power usage of bpred unit_cc3
avg_window_power_cc3         0.6777 # avg power usage of instruction window_cc3
avg_lsq_power_cc3            0.1462 # avg power usage of instruction lsq_cc3
avg_regfile_power_cc3        0.6361 # avg power usage of arch. regfile_cc3
avg_icache_power_cc3         0.8654 # avg power usage of icache_cc3
avg_dcache_power_cc3         1.2917 # avg power usage of dcache_cc3
avg_dcache2_power_cc3        0.3521 # avg power usage of dcache2_cc3
avg_alu_power_cc3            2.8956 # avg power usage of alu_cc3
avg_resultbus_power_cc3       0.5674 # avg power usage of resultbus_cc3
avg_clock_power_cc3          4.8005 # avg power usage of clock_cc3
fetch_stage_power_cc3  199126709.9189 # total power usage of fetch stage_cc3
dispatch_stage_power_cc3 16230529.2857 # total power usage of dispatch stage_cc3
issue_stage_power_cc3  1031319670.3333 # total power usage of issue stage_cc3
avg_fetch_power_cc3          1.1451 # average power of fetch unit per cycle_cc3
avg_dispatch_power_cc3       0.0933 # average power of dispatch unit per cycle_cc3
avg_issue_power_cc3          5.9306 # average power of issue unit per cycle_cc3
total_power_cycle_cc3  2192094286.2181 # total power per cycle_cc3
avg_total_power_cycle_cc3      12.6057 # average total power per cycle_cc3
avg_total_power_insn_cc3      21.9209 # average total power per insn_cc3
total_rename_access       100000002 # total number accesses of rename unit
total_bpred_access                0 # total number accesses of bpred unit
total_window_access       436065895 # total number accesses of instruction window
total_lsq_access           40558846 # total number accesses of load/store queue
total_regfile_access      235773076 # total number accesses of arch. regfile
total_icache_access       101754353 # total number accesses of icache
total_dcache_access        40558116 # total number accesses of dcache
total_dcache2_access        5447512 # total number accesses of dcache2
total_alu_access           99555627 # total number accesses of alu
total_resultbus_access    129632143 # total number accesses of resultbus
avg_rename_access            0.5751 # avg number accesses of rename unit
avg_bpred_access             0.0000 # avg number accesses of bpred unit
avg_window_access            2.5076 # avg number accesses of instruction window
avg_lsq_access               0.2332 # avg number accesses of lsq
avg_regfile_access           1.3558 # avg number accesses of arch. regfile
avg_icache_access            0.5851 # avg number accesses of icache
avg_dcache_access            0.2332 # avg number accesses of dcache
avg_dcache2_access           0.0313 # avg number accesses of dcache2
avg_alu_access               0.5725 # avg number accesses of alu
avg_resultbus_access         0.7455 # avg number accesses of resultbus
max_rename_access                 4 # max number accesses of rename unit
max_bpred_access                  0 # max number accesses of bpred unit
max_window_access                18 # max number accesses of instruction window
max_lsq_access                    4 # max number accesses of load/store queue
max_regfile_access               12 # max number accesses of arch. regfile
max_icache_access                 4 # max number accesses of icache
max_dcache_access                 4 # max number accesses of dcache
max_dcache2_access                5 # max number accesses of dcache2
max_alu_access                    4 # max number accesses of alu
max_resultbus_access             10 # max number accesses of resultbus
max_cycle_power_cc1         51.5843 # maximum cycle power usage of cc1
max_cycle_power_cc2         36.3870 # maximum cycle power usage of cc2
max_cycle_power_cc3         39.1312 # maximum cycle power usage of cc3
sim_invalid_addrs                 0 # total non-speculative bogus addresses seen (debug var)
ld_text_base           0x0120000000 # program text (code) segment base
ld_text_size                1056768 # program text (code) size in bytes
ld_data_base           0x0140000000 # program initialized data segment base
ld_data_size              198995952 # program init'ed `.data' and uninit'ed `.bss' size in bytes
ld_stack_base          0x011ff9b000 # program stack segment base (highest address in stack)
ld_stack_size                 16384 # program initial stack size
ld_prog_entry          0x0120047548 # program entry point (initial PC)
ld_environ_base        0x011ff96cb0 # program environment base address address
ld_target_big_endian              0 # target executable endian-ness, non-zero if big endian
mem.page_count                23259 # total number of pages allocated
mem.page_mem                186072k # total size of memory pages allocated
mem.ptab_misses               36710 # total first level page table misses
mem.ptab_accesses        1211347168 # total page table accesses
mem.ptab_miss_rate           0.0000 # first level page table miss rate

