sim-outorder: SimpleScalar/Alpha Tool Set version 3.0 of August, 2003.
Copyright (c) 1994-2003 by Todd M. Austin, Ph.D. and SimpleScalar, LLC.
All Rights Reserved. This version of SimpleScalar is licensed for academic
non-commercial use.  No portion of this work may be used by any commercial
entity, or for any commercial purpose, without the prior written permission
of SimpleScalar, LLC (info@simplescalar.com).


Processor Parameters:
Issue Width: 4
Window Size: 16
Number of Virtual Registers: 32
Number of Physical Registers: 16
Datapath Width: 64
Total Power Consumption: 72.3917
Branch Predictor Power Consumption: 2.79653  (3.97%)
 branch target buffer power (W): 2.49493
 local predict power (W): 0.0348099
 global predict power (W): 0.0996078
 chooser power (W): 0.0702439
 RAS power (W): 0.0969383
Rename Logic Power Consumption: 0.417965  (0.594%)
 Instruction Decode Power (W): 0.0159915
 RAT decode_power (W): 0.113514
 RAT wordline_power (W): 0.0307815
 RAT bitline_power (W): 0.246771
 DCL Comparators (W): 0.0109075
Instruction Window Power Consumption: 2.20432  (3.13%)
 tagdrive (W): 0.0943488
 tagmatch (W): 0.033695
 Selection Logic (W): 0.0134217
 decode_power (W): 0.0532503
 wordline_power (W): 0.0844643
 bitline_power (W): 1.92514
Load/Store Queue Power Consumption: 0.96318  (1.37%)
 tagdrive (W): 0.457232
 tagmatch (W): 0.100774
 decode_power (W): 0.00799577
 wordline_power (W): 0.0150119
 bitline_power (W): 0.382166
Arch. Register File Power Consumption: 3.57247  (5.08%)
 decode_power (W): 0.113514
 wordline_power (W): 0.0844643
 bitline_power (W): 3.37449
Result Bus Power Consumption: 2.29754  (3.26%)
Total Clock Power: 26.6243  (37.8%)
Int ALU Power: 4.66013  (6.62%)
FP ALU Power: 14.281  (20.3%)
Instruction Cache Power Consumption: 2.76773  (3.93%)
 decode_power (W): 0.151353
 wordline_power (W): 0.180479
 bitline_power (W): 1.42251
 senseamp_power (W): 0.768
 tagarray_power (W): 0.245382
Itlb_power (W): 0.264834 (0.376%)
Data Cache Power Consumption: 5.53546  (7.86%)
 decode_power (W): 0.302705
 wordline_power (W): 0.360958
 bitline_power (W): 2.84503
 senseamp_power (W): 1.536
 tagarray_power (W): 0.490764
Dtlb_power (W): 0.903238 (1.28%)
Level 2 Cache Power Consumption: 3.10298 (4.41%)
 decode_power (W): 0.19487
 wordline_power (W): 0.0430878
 bitline_power (W): 1.77274
 senseamp_power (W): 0.192
 tagarray_power (W): 0.900275
sim: loading EIO file: ../benchmarks/186.crafty.spec_ref.eio.gz
sim: command line: ./sim-outorder -config ../configs/current.config ../benchmarks/186.crafty.spec_ref.eio.gz 

sim: simulation started @ Mon Nov 23 19:07:16 2015, options follow:

sim-outorder: This simulator implements a very detailed out-of-order issue
superscalar processor with a two-level memory system and speculative
execution support.  This simulator is a performance simulator, tracking the
latency of all pipeline operations.

# -config                     # load configuration from a file
# -dumpconfig                 # dump configuration to a file
# -h                    false # print help message    
# -v                    false # verbose operation     
# -d                    false # enable debug message  
# -i                    false # start in Dlite debugger
-seed                       1 # random number generator seed (0 for timer seed)
# -q                    false # initialize and terminate immediately
# -chkpt               <null> # restore EIO trace execution from <fname>
# -redir:sim     ../results/01_00_baseline/186.crafty.spec_ref.eio.gz.out # redirect simulator output to file (non-interactive only)
# -redir:prog       /dev/null # redirect simulated program output to file
-nice                       0 # simulator scheduling priority
-freq            600000000.0000 # frequency             
-max:inst           100000000 # maximum number of inst's to execute
-fastfwd                    0 # number of insts skipped before timing starts
# -ptrace              <null> # generate pipetrace, i.e., <fname|stdout|stderr> <range>
-fetch:ifqsize              4 # instruction fetch queue size (in insts)
-fetch:mplat                3 # extra branch mis-prediction latency
-fetch:speed                1 # speed of front-end of machine relative to execution core
-bpred                perfect # branch predictor type {nottaken|taken|perfect|bimod|2lev|comb}
-bpred:bimod     2048 # bimodal predictor config (<table size>)
-bpred:2lev      1 256 2 0 # 2-level predictor config (<l1size> <l2size> <hist_size> <xor>)
-bpred:comb      1024 # combining predictor config (<meta_table_size>)
-bpred:ras                  8 # return address stack size (0 for no return stack)
-bpred:btb       512 4 # BTB config (<num_sets> <associativity>)
# -bpred:spec_update       <null> # speculative predictors update in {ID|WB} (default non-spec)
-decode:width               4 # instruction decode B/W (insts/cycle)
-issue:width                4 # instruction issue B/W (insts/cycle)
-issue:inorder          false # run pipeline with in-order issue
-issue:wrongpath         true # issue instructions down wrong execution paths
-commit:width               4 # instruction commit B/W (insts/cycle)
-ruu:size                  16 # register update unit (RUU) size
-lsq:size                   8 # load/store queue (LSQ) size
-cache:dl1       dl1:32:64:8:f # l1 data cache config, i.e., {<config>|none}
-cache:dl1lat               1 # l1 data cache hit latency (in cycles)
-cache:dl2       dl2:256:64:8:f # l2 data cache config, i.e., {<config>|none}
-cache:dl2lat               2 # l2 data cache hit latency (in cycles)
-cache:il1       il1:32:64:8:f # l1 inst cache config, i.e., {<config>|dl1|dl2|none}
-cache:il1lat               1 # l1 instruction cache hit latency (in cycles)
-cache:il2                dl2 # l2 instruction cache config, i.e., {<config>|dl2|none}
-cache:il2lat               2 # l2 instruction cache hit latency (in cycles)
-cache:flush            false # flush caches on system calls
-cache:icompress        false # convert 64-bit inst addresses to 32-bit inst equivalents
-mem:lat         103 1 # memory access latency (<first_chunk> <inter_chunk>)
-mem:width                  8 # memory access bus width (in bytes)
-tlb:itlb        itlb:16:4096:4:l # instruction TLB config, i.e., {<config>|none}
-tlb:dtlb        dtlb:32:4096:4:l # data TLB config, i.e., {<config>|none}
-tlb:lat                   30 # inst/data TLB miss latency (in cycles)
-res:ialu                   4 # total number of integer ALU's available
-res:imult                  1 # total number of integer multiplier/dividers available
-res:memport                2 # total number of memory system ports available (to CPU)
-res:fpalu                  4 # total number of floating point ALU's available
-res:fpmult                 1 # total number of floating point multiplier/dividers available
# -pcstat              <null> # profile stat(s) against text addr's (mult uses ok)
-bugcompat              false # operate in backward-compatible bugs mode (for testing only)

  Pipetrace range arguments are formatted as follows:

    {{@|#}<start>}:{{@|#|+}<end>}

  Both ends of the range are optional, if neither are specified, the entire
  execution is traced.  Ranges that start with a `@' designate an address
  range to be traced, those that start with an `#' designate a cycle count
  range.  All other range values represent an instruction count range.  The
  second argument, if specified with a `+', indicates a value relative
  to the first argument, e.g., 1000:+100 == 1000:1100.  Program symbols may
  be used in all contexts.

    Examples:   -ptrace FOO.trc #0:#1000
                -ptrace BAR.trc @2000:
                -ptrace BLAH.trc :1500
                -ptrace UXXE.trc :
                -ptrace FOOBAR.trc @main:+278

  Branch predictor configuration examples for 2-level predictor:
    Configurations:   N, M, W, X
      N   # entries in first level (# of shift register(s))
      W   width of shift register(s)
      M   # entries in 2nd level (# of counters, or other FSM)
      X   (yes-1/no-0) xor history and address for 2nd level index
    Sample predictors:
      GAg     : 1, W, 2^W, 0
      GAp     : 1, W, M (M > 2^W), 0
      PAg     : N, W, 2^W, 0
      PAp     : N, W, M (M == 2^(N+W)), 0
      gshare  : 1, W, 2^W, 1
  Predictor `comb' combines a bimodal and a 2-level predictor.

  The cache config parameter <config> has the following format:

    <name>:<nsets>:<bsize>:<assoc>:<repl>

    <name>   - name of the cache being defined
    <nsets>  - number of sets in the cache
    <bsize>  - block size of the cache
    <assoc>  - associativity of the cache
    <repl>   - block replacement strategy, 'l'-LRU, 'f'-FIFO, 'r'-random

    Examples:   -cache:dl1 dl1:4096:32:1:l
                -dtlb dtlb:128:4096:32:r

  Cache levels can be unified by pointing a level of the instruction cache
  hierarchy at the data cache hiearchy using the "dl1" and "dl2" cache
  configuration arguments.  Most sensible combinations are supported, e.g.,

    A unified l2 cache (il2 is pointed at dl2):
      -cache:il1 il1:128:64:1:l -cache:il2 dl2
      -cache:dl1 dl1:256:32:1:l -cache:dl2 ul2:1024:64:2:l

    Or, a fully unified cache hierarchy (il1 pointed at dl1):
      -cache:il1 dl1
      -cache:dl1 ul1:256:32:1:l -cache:dl2 ul2:1024:64:2:l



sim: ** starting performance simulation **

sim: ** simulation statistics **
sim_num_insn              100000003 # total number of instructions committed
sim_num_refs               36952286 # total number of loads and stores committed
sim_num_loads              31583999 # total number of loads committed
sim_num_stores         5368287.0000 # total number of stores committed
sim_num_branches           11073363 # total number of branches committed
sim_elapsed_time                102 # total simulation time in seconds
sim_inst_rate           980392.1863 # simulation speed (in insts/sec)
sim_total_insn            100000003 # total number of instructions executed
sim_total_refs             36952286 # total number of loads and stores executed
sim_total_loads            31583999 # total number of loads executed
sim_total_stores       5368287.0000 # total number of stores executed
sim_total_branches         11073363 # total number of branches executed
sim_cycle                  64485881 # total simulation time in cycles
sim_IPC                      1.5507 # instructions per cycle
sim_CPI                      0.6449 # cycles per instruction
sim_exec_BW                  1.5507 # total instructions (mis-spec + committed) per cycle
sim_IPB                      9.0307 # instruction per branch
IFQ_count                 226517336 # cumulative IFQ occupancy
IFQ_fcount                 56188703 # cumulative IFQ full count
ifq_occupancy                3.5127 # avg IFQ occupancy (insn's)
ifq_rate                     1.5507 # avg IFQ dispatch rate (insn/cycle)
ifq_latency                  2.2652 # avg IFQ occupant latency (cycle's)
ifq_full                     0.8713 # fraction of time (cycle's) IFQ was full
RUU_count                 843803922 # cumulative RUU occupancy
RUU_fcount                 32723837 # cumulative RUU full count
ruu_occupancy               13.0851 # avg RUU occupancy (insn's)
ruu_rate                     1.5507 # avg RUU dispatch rate (insn/cycle)
ruu_latency                  8.4380 # avg RUU occupant latency (cycle's)
ruu_full                     0.5075 # fraction of time (cycle's) RUU was full
LSQ_count                 301576237 # cumulative LSQ occupancy
LSQ_fcount                 10864281 # cumulative LSQ full count
lsq_occupancy                4.6766 # avg LSQ occupancy (insn's)
lsq_rate                     1.5507 # avg LSQ dispatch rate (insn/cycle)
lsq_latency                  3.0158 # avg LSQ occupant latency (cycle's)
lsq_full                     0.1685 # fraction of time (cycle's) LSQ was full
sim_slip                 1282332356 # total number of slip cycles
avg_sim_slip                12.8233 # the average slip between issue and retirement
il1.accesses              114560525 # total number of accesses
il1.hits                  112867261 # total number of hits
il1.misses                  1693264 # total number of misses
il1.replacements            1693008 # total number of replacements
il1.writebacks                    0 # total number of writebacks
il1.invalidations                 0 # total number of invalidations
il1.miss_rate                0.0148 # miss rate (i.e., misses/ref)
il1.repl_rate                0.0148 # replacement rate (i.e., repls/ref)
il1.wb_rate                  0.0000 # writeback rate (i.e., wrbks/ref)
il1.inv_rate                 0.0000 # invalidation rate (i.e., invs/ref)
dl1.accesses               36897258 # total number of accesses
dl1.hits                   35132888 # total number of hits
dl1.misses                  1764370 # total number of misses
dl1.replacements            1764114 # total number of replacements
dl1.writebacks               198094 # total number of writebacks
dl1.invalidations                 0 # total number of invalidations
dl1.miss_rate                0.0478 # miss rate (i.e., misses/ref)
dl1.repl_rate                0.0478 # replacement rate (i.e., repls/ref)
dl1.wb_rate                  0.0054 # writeback rate (i.e., wrbks/ref)
dl1.inv_rate                 0.0000 # invalidation rate (i.e., invs/ref)
dl2.accesses                3655728 # total number of accesses
dl2.hits                    3500194 # total number of hits
dl2.misses                   155534 # total number of misses
dl2.replacements             153486 # total number of replacements
dl2.writebacks                12704 # total number of writebacks
dl2.invalidations                 0 # total number of invalidations
dl2.miss_rate                0.0425 # miss rate (i.e., misses/ref)
dl2.repl_rate                0.0420 # replacement rate (i.e., repls/ref)
dl2.wb_rate                  0.0035 # writeback rate (i.e., wrbks/ref)
dl2.inv_rate                 0.0000 # invalidation rate (i.e., invs/ref)
itlb.accesses             114560525 # total number of accesses
itlb.hits                 114560497 # total number of hits
itlb.misses                      28 # total number of misses
itlb.replacements                 0 # total number of replacements
itlb.writebacks                   0 # total number of writebacks
itlb.invalidations                0 # total number of invalidations
itlb.miss_rate               0.0000 # miss rate (i.e., misses/ref)
itlb.repl_rate               0.0000 # replacement rate (i.e., repls/ref)
itlb.wb_rate                 0.0000 # writeback rate (i.e., wrbks/ref)
itlb.inv_rate                0.0000 # invalidation rate (i.e., invs/ref)
dtlb.accesses              36952286 # total number of accesses
dtlb.hits                  36595068 # total number of hits
dtlb.misses                  357218 # total number of misses
dtlb.replacements            357090 # total number of replacements
dtlb.writebacks                   0 # total number of writebacks
dtlb.invalidations                0 # total number of invalidations
dtlb.miss_rate               0.0097 # miss rate (i.e., misses/ref)
dtlb.repl_rate               0.0097 # replacement rate (i.e., repls/ref)
dtlb.wb_rate                 0.0000 # writeback rate (i.e., wrbks/ref)
dtlb.inv_rate                0.0000 # invalidation rate (i.e., invs/ref)
rename_power           26952872.6349 # total power usage of rename unit
bpred_power            180336559.8185 # total power usage of bpred unit
window_power           142147479.6527 # total power usage of instruction window
lsq_power              62111510.1349 # total power usage of load/store queue
regfile_power          230374010.8733 # total power usage of arch. regfile
icache_power           195557500.4829 # total power usage of icache
dcache_power           415204970.3312 # total power usage of dcache
dcache2_power          200098190.7229 # total power usage of dcache2
alu_power              1221438385.0772 # total power usage of alu
falu_power             920925765.7081 # total power usage of falu
resultbus_power        148159077.2024 # total power usage of resultbus
clock_power            1716888720.1088 # total power usage of clock
avg_rename_power             0.4180 # avg power usage of rename unit
avg_bpred_power              2.7965 # avg power usage of bpred unit
avg_window_power             2.2043 # avg power usage of instruction window
avg_lsq_power                0.9632 # avg power usage of lsq
avg_regfile_power            3.5725 # avg power usage of arch. regfile
avg_icache_power             3.0326 # avg power usage of icache
avg_dcache_power             6.4387 # avg power usage of dcache
avg_dcache2_power            3.1030 # avg power usage of dcache2
avg_alu_power               18.9412 # avg power usage of alu
avg_falu_power              14.2810 # avg power usage of falu
avg_resultbus_power          2.2975 # avg power usage of resultbus
avg_clock_power             26.6243 # avg power usage of clock
fetch_stage_power      375894060.3014 # total power usage of fetch stage
dispatch_stage_power   26952872.6349 # total power usage of dispatch stage
issue_stage_power      2189159613.1212 # total power usage of issue stage
avg_fetch_power              5.8291 # average power of fetch unit per cycle
avg_dispatch_power           0.4180 # average power of dispatch unit per cycle
avg_issue_power             33.9479 # average power of issue unit per cycle
total_power            4539269277.0396 # total power per cycle
avg_total_power_cycle       70.3917 # average total power per cycle
avg_total_power_cycle_nofp_nod2      53.0077 # average total power per cycle
avg_total_power_insn        45.3927 # average total power per insn
avg_total_power_insn_nofp_nod2      34.1825 # average total power per insn
rename_power_cc1       14892107.7823 # total power usage of rename unit_cc1
bpred_power_cc1              0.0000 # total power usage of bpred unit_cc1
window_power_cc1       96944117.7193 # total power usage of instruction window_cc1
lsq_power_cc1          14034966.0252 # total power usage of lsq_cc1
regfile_power_cc1      119648846.7733 # total power usage of arch. regfile_cc1
icache_power_cc1       111109125.5867 # total power usage of icache_cc1
dcache_power_cc1       165616657.7449 # total power usage of dcache_cc1
dcache2_power_cc1      10365686.2921 # total power usage of dcache2_cc1
alu_power_cc1          190451594.4569 # total power usage of alu_cc1
resultbus_power_cc1    92545885.1882 # total power usage of resultbus_cc1
clock_power_cc1        522419680.9652 # total power usage of clock_cc1
avg_rename_power_cc1         0.2309 # avg power usage of rename unit_cc1
avg_bpred_power_cc1          0.0000 # avg power usage of bpred unit_cc1
avg_window_power_cc1         1.5033 # avg power usage of instruction window_cc1
avg_lsq_power_cc1            0.2176 # avg power usage of lsq_cc1
avg_regfile_power_cc1        1.8554 # avg power usage of arch. regfile_cc1
avg_icache_power_cc1         1.7230 # avg power usage of icache_cc1
avg_dcache_power_cc1         2.5683 # avg power usage of dcache_cc1
avg_dcache2_power_cc1        0.1607 # avg power usage of dcache2_cc1
avg_alu_power_cc1            2.9534 # avg power usage of alu_cc1
avg_resultbus_power_cc1       1.4351 # avg power usage of resultbus_cc1
avg_clock_power_cc1          8.1013 # avg power usage of clock_cc1
fetch_stage_power_cc1  111109125.5867 # total power usage of fetch stage_cc1
dispatch_stage_power_cc1 14892107.7823 # total power usage of dispatch stage_cc1
issue_stage_power_cc1  569958907.4266 # total power usage of issue stage_cc1
avg_fetch_power_cc1          1.7230 # average power of fetch unit per cycle_cc1
avg_dispatch_power_cc1       0.2309 # average power of dispatch unit per cycle_cc1
avg_issue_power_cc1          8.8385 # average power of issue unit per cycle_cc1
total_power_cycle_cc1  1338028668.5341 # total power per cycle_cc1
avg_total_power_cycle_cc1      20.7492 # average total power per cycle_cc1
avg_total_power_insn_cc1      13.3803 # average total power per insn_cc1
rename_power_cc2       10449137.4803 # total power usage of rename unit_cc2
bpred_power_cc2              0.0000 # total power usage of bpred unit_cc2
window_power_cc2       83825326.5126 # total power usage of instruction window_cc2
lsq_power_cc2          9710114.8570 # total power usage of lsq_cc2
regfile_power_cc2      39637005.4183 # total power usage of arch. regfile_cc2
icache_power_cc2       111109125.5867 # total power usage of icache_cc2
dcache_power_cc2       118785109.7807 # total power usage of dcache_cc2
dcache2_power_cc2      5671819.5348 # total power usage of dcache2_cc2
alu_power_cc2          116568039.2608 # total power usage of alu_cc2
resultbus_power_cc2    64893360.6159 # total power usage of resultbus_cc2
clock_power_cc2        360048426.6351 # total power usage of clock_cc2
avg_rename_power_cc2         0.1620 # avg power usage of rename unit_cc2
avg_bpred_power_cc2          0.0000 # avg power usage of bpred unit_cc2
avg_window_power_cc2         1.2999 # avg power usage of instruction window_cc2
avg_lsq_power_cc2            0.1506 # avg power usage of instruction lsq_cc2
avg_regfile_power_cc2        0.6147 # avg power usage of arch. regfile_cc2
avg_icache_power_cc2         1.7230 # avg power usage of icache_cc2
avg_dcache_power_cc2         1.8420 # avg power usage of dcache_cc2
avg_dcache2_power_cc2        0.0880 # avg power usage of dcache2_cc2
avg_alu_power_cc2            1.8077 # avg power usage of alu_cc2
avg_resultbus_power_cc2       1.0063 # avg power usage of resultbus_cc2
avg_clock_power_cc2          5.5834 # avg power usage of clock_cc2
fetch_stage_power_cc2  111109125.5867 # total power usage of fetch stage_cc2
dispatch_stage_power_cc2 10449137.4803 # total power usage of dispatch stage_cc2
issue_stage_power_cc2  399453770.5618 # total power usage of issue stage_cc2
avg_fetch_power_cc2          1.7230 # average power of fetch unit per cycle_cc2
avg_dispatch_power_cc2       0.1620 # average power of dispatch unit per cycle_cc2
avg_issue_power_cc2          6.1944 # average power of issue unit per cycle_cc2
total_power_cycle_cc2  920697465.6823 # total power per cycle_cc2
avg_total_power_cycle_cc2      14.2775 # average total power per cycle_cc2
avg_total_power_insn_cc2       9.2070 # average total power per insn_cc2
rename_power_cc3       11655213.9594 # total power usage of rename unit_cc3
bpred_power_cc3        18033656.0061 # total power usage of bpred unit_cc3
window_power_cc3       88221336.4597 # total power usage of instruction window_cc3
lsq_power_cc3          14497418.6988 # total power usage of lsq_cc3
regfile_power_cc3      49098822.8357 # total power usage of arch. regfile_cc3
icache_power_cc3       119553963.0274 # total power usage of icache_cc3
dcache_power_cc3       144024817.8829 # total power usage of dcache_cc3
dcache2_power_cc3      24648648.9339 # total power usage of dcache2_cc3
alu_power_cc3          219666717.8754 # total power usage of alu_cc3
resultbus_power_cc3    69865352.3517 # total power usage of resultbus_cc3
clock_power_cc3        478165924.8339 # total power usage of clock_cc3
avg_rename_power_cc3         0.1807 # avg power usage of rename unit_cc3
avg_bpred_power_cc3          0.2797 # avg power usage of bpred unit_cc3
avg_window_power_cc3         1.3681 # avg power usage of instruction window_cc3
avg_lsq_power_cc3            0.2248 # avg power usage of instruction lsq_cc3
avg_regfile_power_cc3        0.7614 # avg power usage of arch. regfile_cc3
avg_icache_power_cc3         1.8540 # avg power usage of icache_cc3
avg_dcache_power_cc3         2.2334 # avg power usage of dcache_cc3
avg_dcache2_power_cc3        0.3822 # avg power usage of dcache2_cc3
avg_alu_power_cc3            3.4064 # avg power usage of alu_cc3
avg_resultbus_power_cc3       1.0834 # avg power usage of resultbus_cc3
avg_clock_power_cc3          7.4150 # avg power usage of clock_cc3
fetch_stage_power_cc3  137587619.0336 # total power usage of fetch stage_cc3
dispatch_stage_power_cc3 11655213.9594 # total power usage of dispatch stage_cc3
issue_stage_power_cc3  560924292.2024 # total power usage of issue stage_cc3
avg_fetch_power_cc3          2.1336 # average power of fetch unit per cycle_cc3
avg_dispatch_power_cc3       0.1807 # average power of dispatch unit per cycle_cc3
avg_issue_power_cc3          8.6984 # average power of issue unit per cycle_cc3
total_power_cycle_cc3  1237431872.8650 # total power per cycle_cc3
avg_total_power_cycle_cc3      19.1892 # average total power per cycle_cc3
avg_total_power_insn_cc3      12.3743 # average total power per insn_cc3
total_rename_access       100000003 # total number accesses of rename unit
total_bpred_access                0 # total number accesses of bpred unit
total_window_access       394077101 # total number accesses of instruction window
total_lsq_access           37007314 # total number accesses of load/store queue
total_regfile_access      151646985 # total number accesses of arch. regfile
total_icache_access       114560525 # total number accesses of icache
total_dcache_access        36897258 # total number accesses of dcache
total_dcache2_access        3655728 # total number accesses of dcache2
total_alu_access           99999992 # total number accesses of alu
total_resultbus_access    120510629 # total number accesses of resultbus
avg_rename_access            1.5507 # avg number accesses of rename unit
avg_bpred_access             0.0000 # avg number accesses of bpred unit
avg_window_access            6.1111 # avg number accesses of instruction window
avg_lsq_access               0.5739 # avg number accesses of lsq
avg_regfile_access           2.3516 # avg number accesses of arch. regfile
avg_icache_access            1.7765 # avg number accesses of icache
avg_dcache_access            0.5722 # avg number accesses of dcache
avg_dcache2_access           0.0567 # avg number accesses of dcache2
avg_alu_access               1.5507 # avg number accesses of alu
avg_resultbus_access         1.8688 # avg number accesses of resultbus
max_rename_access                 4 # max number accesses of rename unit
max_bpred_access                  0 # max number accesses of bpred unit
max_window_access                18 # max number accesses of instruction window
max_lsq_access                    5 # max number accesses of load/store queue
max_regfile_access               12 # max number accesses of arch. regfile
max_icache_access                 4 # max number accesses of icache
max_dcache_access                 4 # max number accesses of dcache
max_dcache2_access                5 # max number accesses of dcache2
max_alu_access                    4 # max number accesses of alu
max_resultbus_access              8 # max number accesses of resultbus
max_cycle_power_cc1         46.2916 # maximum cycle power usage of cc1
max_cycle_power_cc2         32.6474 # maximum cycle power usage of cc2
max_cycle_power_cc3         36.2290 # maximum cycle power usage of cc3
sim_invalid_addrs                 0 # total non-speculative bogus addresses seen (debug var)
ld_text_base           0x0120000000 # program text (code) segment base
ld_text_size                 442368 # program text (code) size in bytes
ld_data_base           0x0140000000 # program initialized data segment base
ld_data_size                1163616 # program init'ed `.data' and uninit'ed `.bss' size in bytes
ld_stack_base          0x011ff9b000 # program stack segment base (highest address in stack)
ld_stack_size                 16384 # program initial stack size
ld_prog_entry          0x0120013300 # program entry point (initial PC)
ld_environ_base        0x011ff96170 # program environment base address address
ld_target_big_endian              0 # target executable endian-ness, non-zero if big endian
mem.page_count                  306 # total number of pages allocated
mem.page_mem                  2448k # total size of memory pages allocated
mem.ptab_misses              529343 # total first level page table misses
mem.ptab_accesses         708388716 # total page table accesses
mem.ptab_miss_rate           0.0007 # first level page table miss rate

