sim-outorder: SimpleScalar/Alpha Tool Set version 3.0 of August, 2003.
Copyright (c) 1994-2003 by Todd M. Austin, Ph.D. and SimpleScalar, LLC.
All Rights Reserved. This version of SimpleScalar is licensed for academic
non-commercial use.  No portion of this work may be used by any commercial
entity, or for any commercial purpose, without the prior written permission
of SimpleScalar, LLC (info@simplescalar.com).


Processor Parameters:
Issue Width: 8
Window Size: 64
Number of Virtual Registers: 32
Number of Physical Registers: 64
Datapath Width: 64
Total Power Consumption: 111.411
Branch Predictor Power Consumption: 3.33649  (3.05%)
 branch target buffer power (W): 2.49493
 local predict power (W): 0.574771
 global predict power (W): 0.0996078
 chooser power (W): 0.0702439
 RAS power (W): 0.0969383
Rename Logic Power Consumption: 1.27958  (1.17%)
 Instruction Decode Power (W): 0.0319831
 RAT decode_power (W): 0.227029
 RAT wordline_power (W): 0.0913687
 RAT bitline_power (W): 0.878297
 DCL Comparators (W): 0.0509018
Instruction Window Power Consumption: 15.0105  (13.7%)
 tagdrive (W): 1.06159
 tagmatch (W): 0.415138
 Selection Logic (W): 0.112742
 decode_power (W): 0.488291
 wordline_power (W): 0.288569
 bitline_power (W): 12.6442
Load/Store Queue Power Consumption: 1.62328  (1.48%)
 tagdrive (W): 0.457232
 tagmatch (W): 0.100875
 decode_power (W): 0.00799577
 wordline_power (W): 0.0150119
 bitline_power (W): 1.04217
Arch. Register File Power Consumption: 9.39491  (8.59%)
 decode_power (W): 0.227029
 wordline_power (W): 0.288569
 bitline_power (W): 8.87931
Result Bus Power Consumption: 10.0808  (9.21%)
Total Clock Power: 37.1702  (34%)
Int ALU Power: 4.66013  (4.26%)
FP ALU Power: 14.281  (13.1%)
Instruction Cache Power Consumption: 2.76773  (2.53%)
 decode_power (W): 0.151353
 wordline_power (W): 0.180479
 bitline_power (W): 1.42251
 senseamp_power (W): 0.768
 tagarray_power (W): 0.245382
Itlb_power (W): 0.264936 (0.242%)
Data Cache Power Consumption: 5.53546  (5.06%)
 decode_power (W): 0.302705
 wordline_power (W): 0.360958
 bitline_power (W): 2.84503
 senseamp_power (W): 1.536
 tagarray_power (W): 0.490764
Dtlb_power (W): 0.903441 (0.826%)
Level 2 Cache Power Consumption: 3.10298 (2.84%)
 decode_power (W): 0.19487
 wordline_power (W): 0.0430878
 bitline_power (W): 1.77274
 senseamp_power (W): 0.192
 tagarray_power (W): 0.900275
sim: loading EIO file: ../benchmarks/173.applu.spec_ref.eio.gz
sim: command line: ./sim-outorder -config ../configs/current.config ../benchmarks/173.applu.spec_ref.eio.gz 

sim: simulation started @ Tue Nov 24 11:09:29 2015, options follow:

sim-outorder: This simulator implements a very detailed out-of-order issue
superscalar processor with a two-level memory system and speculative
execution support.  This simulator is a performance simulator, tracking the
latency of all pipeline operations.

# -config                     # load configuration from a file
# -dumpconfig                 # dump configuration to a file
# -h                    false # print help message    
# -v                    false # verbose operation     
# -d                    false # enable debug message  
# -i                    false # start in Dlite debugger
-seed                       1 # random number generator seed (0 for timer seed)
# -q                    false # initialize and terminate immediately
# -chkpt               <null> # restore EIO trace execution from <fname>
# -redir:sim     ../results/18_17_width/173.applu.spec_ref.eio.gz.out # redirect simulator output to file (non-interactive only)
# -redir:prog       /dev/null # redirect simulated program output to file
-nice                       0 # simulator scheduling priority
-freq            600000000.0000 # frequency             
-max:inst           100000000 # maximum number of inst's to execute
-fastfwd                    0 # number of insts skipped before timing starts
# -ptrace              <null> # generate pipetrace, i.e., <fname|stdout|stderr> <range>
-fetch:ifqsize              8 # instruction fetch queue size (in insts)
-fetch:mplat               15 # extra branch mis-prediction latency
-fetch:speed                1 # speed of front-end of machine relative to execution core
-bpred                perfect # branch predictor type {nottaken|taken|perfect|bimod|2lev|comb}
-bpred:bimod     2048 # bimodal predictor config (<table size>)
-bpred:2lev      1 16384 4 0 # 2-level predictor config (<l1size> <l2size> <hist_size> <xor>)
-bpred:comb      1024 # combining predictor config (<meta_table_size>)
-bpred:ras                  8 # return address stack size (0 for no return stack)
-bpred:btb       512 4 # BTB config (<num_sets> <associativity>)
# -bpred:spec_update       <null> # speculative predictors update in {ID|WB} (default non-spec)
-decode:width               8 # instruction decode B/W (insts/cycle)
-issue:width                8 # instruction issue B/W (insts/cycle)
-issue:inorder          false # run pipeline with in-order issue
-issue:wrongpath         true # issue instructions down wrong execution paths
-commit:width               8 # instruction commit B/W (insts/cycle)
-ruu:size                  64 # register update unit (RUU) size
-lsq:size                   8 # load/store queue (LSQ) size
-cache:dl1       dl1:32:64:8:f # l1 data cache config, i.e., {<config>|none}
-cache:dl1lat               1 # l1 data cache hit latency (in cycles)
-cache:dl2       dl2:256:64:8:f # l2 data cache config, i.e., {<config>|none}
-cache:dl2lat               2 # l2 data cache hit latency (in cycles)
-cache:il1       il1:32:64:8:f # l1 inst cache config, i.e., {<config>|dl1|dl2|none}
-cache:il1lat               1 # l1 instruction cache hit latency (in cycles)
-cache:il2                dl2 # l2 instruction cache config, i.e., {<config>|dl2|none}
-cache:il2lat               2 # l2 instruction cache hit latency (in cycles)
-cache:flush            false # flush caches on system calls
-cache:icompress        false # convert 64-bit inst addresses to 32-bit inst equivalents
-mem:lat         103 1 # memory access latency (<first_chunk> <inter_chunk>)
-mem:width                  8 # memory access bus width (in bytes)
-tlb:itlb        itlb:16:4096:4:l # instruction TLB config, i.e., {<config>|none}
-tlb:dtlb        dtlb:32:4096:4:l # data TLB config, i.e., {<config>|none}
-tlb:lat                   30 # inst/data TLB miss latency (in cycles)
-res:ialu                   4 # total number of integer ALU's available
-res:imult                  1 # total number of integer multiplier/dividers available
-res:memport                2 # total number of memory system ports available (to CPU)
-res:fpalu                  4 # total number of floating point ALU's available
-res:fpmult                 1 # total number of floating point multiplier/dividers available
# -pcstat              <null> # profile stat(s) against text addr's (mult uses ok)
-bugcompat              false # operate in backward-compatible bugs mode (for testing only)

  Pipetrace range arguments are formatted as follows:

    {{@|#}<start>}:{{@|#|+}<end>}

  Both ends of the range are optional, if neither are specified, the entire
  execution is traced.  Ranges that start with a `@' designate an address
  range to be traced, those that start with an `#' designate a cycle count
  range.  All other range values represent an instruction count range.  The
  second argument, if specified with a `+', indicates a value relative
  to the first argument, e.g., 1000:+100 == 1000:1100.  Program symbols may
  be used in all contexts.

    Examples:   -ptrace FOO.trc #0:#1000
                -ptrace BAR.trc @2000:
                -ptrace BLAH.trc :1500
                -ptrace UXXE.trc :
                -ptrace FOOBAR.trc @main:+278

  Branch predictor configuration examples for 2-level predictor:
    Configurations:   N, M, W, X
      N   # entries in first level (# of shift register(s))
      W   width of shift register(s)
      M   # entries in 2nd level (# of counters, or other FSM)
      X   (yes-1/no-0) xor history and address for 2nd level index
    Sample predictors:
      GAg     : 1, W, 2^W, 0
      GAp     : 1, W, M (M > 2^W), 0
      PAg     : N, W, 2^W, 0
      PAp     : N, W, M (M == 2^(N+W)), 0
      gshare  : 1, W, 2^W, 1
  Predictor `comb' combines a bimodal and a 2-level predictor.

  The cache config parameter <config> has the following format:

    <name>:<nsets>:<bsize>:<assoc>:<repl>

    <name>   - name of the cache being defined
    <nsets>  - number of sets in the cache
    <bsize>  - block size of the cache
    <assoc>  - associativity of the cache
    <repl>   - block replacement strategy, 'l'-LRU, 'f'-FIFO, 'r'-random

    Examples:   -cache:dl1 dl1:4096:32:1:l
                -dtlb dtlb:128:4096:32:r

  Cache levels can be unified by pointing a level of the instruction cache
  hierarchy at the data cache hiearchy using the "dl1" and "dl2" cache
  configuration arguments.  Most sensible combinations are supported, e.g.,

    A unified l2 cache (il2 is pointed at dl2):
      -cache:il1 il1:128:64:1:l -cache:il2 dl2
      -cache:dl1 dl1:256:32:1:l -cache:dl2 ul2:1024:64:2:l

    Or, a fully unified cache hierarchy (il1 pointed at dl1):
      -cache:il1 dl1
      -cache:dl1 ul1:256:32:1:l -cache:dl2 ul2:1024:64:2:l



sim: ** starting performance simulation **

sim: ** simulation statistics **
sim_num_insn              100000004 # total number of instructions committed
sim_num_refs               40558486 # total number of loads and stores committed
sim_num_loads              30197386 # total number of loads committed
sim_num_stores         10361100.0000 # total number of stores committed
sim_num_branches             565233 # total number of branches committed
sim_elapsed_time                150 # total simulation time in seconds
sim_inst_rate           666666.6933 # simulation speed (in insts/sec)
sim_total_insn            100000004 # total number of instructions executed
sim_total_refs             40558486 # total number of loads and stores executed
sim_total_loads            30197386 # total number of loads executed
sim_total_stores       10361100.0000 # total number of stores executed
sim_total_branches           565233 # total number of branches executed
sim_cycle                 166535506 # total simulation time in cycles
sim_IPC                      0.6005 # instructions per cycle
sim_CPI                      1.6654 # cycles per instruction
sim_exec_BW                  0.6005 # total instructions (mis-spec + committed) per cycle
sim_IPB                    176.9182 # instruction per branch
IFQ_count                1280054040 # cumulative IFQ occupancy
IFQ_fcount                159007360 # cumulative IFQ full count
ifq_occupancy                7.6864 # avg IFQ occupancy (insn's)
ifq_rate                     0.6005 # avg IFQ dispatch rate (insn/cycle)
ifq_latency                 12.8005 # avg IFQ occupant latency (cycle's)
ifq_full                     0.9548 # fraction of time (cycle's) IFQ was full
RUU_count                2834733770 # cumulative RUU occupancy
RUU_fcount                        0 # cumulative RUU full count
ruu_occupancy               17.0218 # avg RUU occupancy (insn's)
ruu_rate                     0.6005 # avg RUU dispatch rate (insn/cycle)
ruu_latency                 28.3473 # avg RUU occupant latency (cycle's)
ruu_full                     0.0000 # fraction of time (cycle's) RUU was full
LSQ_count                1284232346 # cumulative LSQ occupancy
LSQ_fcount                155569481 # cumulative LSQ full count
lsq_occupancy                7.7115 # avg LSQ occupancy (insn's)
lsq_rate                     0.6005 # avg LSQ dispatch rate (insn/cycle)
lsq_latency                 12.8423 # avg LSQ occupant latency (cycle's)
lsq_full                     0.9342 # fraction of time (cycle's) LSQ was full
sim_slip                 4259524423 # total number of slip cycles
avg_sim_slip                42.5952 # the average slip between issue and retirement
il1.accesses              102377249 # total number of accesses
il1.hits                  101196097 # total number of hits
il1.misses                  1181152 # total number of misses
il1.replacements            1180896 # total number of replacements
il1.writebacks                    0 # total number of writebacks
il1.invalidations                 0 # total number of invalidations
il1.miss_rate                0.0115 # miss rate (i.e., misses/ref)
il1.repl_rate                0.0115 # replacement rate (i.e., repls/ref)
il1.wb_rate                  0.0000 # writeback rate (i.e., wrbks/ref)
il1.inv_rate                 0.0000 # invalidation rate (i.e., invs/ref)
dl1.accesses               40554932 # total number of accesses
dl1.hits                   37701550 # total number of hits
dl1.misses                  2853382 # total number of misses
dl1.replacements            2853126 # total number of replacements
dl1.writebacks              1412590 # total number of writebacks
dl1.invalidations                 0 # total number of invalidations
dl1.miss_rate                0.0704 # miss rate (i.e., misses/ref)
dl1.repl_rate                0.0704 # replacement rate (i.e., repls/ref)
dl1.wb_rate                  0.0348 # writeback rate (i.e., wrbks/ref)
dl1.inv_rate                 0.0000 # invalidation rate (i.e., invs/ref)
dl2.accesses                5447124 # total number of accesses
dl2.hits                    3525440 # total number of hits
dl2.misses                  1921684 # total number of misses
dl2.replacements            1919636 # total number of replacements
dl2.writebacks              1009839 # total number of writebacks
dl2.invalidations                 0 # total number of invalidations
dl2.miss_rate                0.3528 # miss rate (i.e., misses/ref)
dl2.repl_rate                0.3524 # replacement rate (i.e., repls/ref)
dl2.wb_rate                  0.1854 # writeback rate (i.e., wrbks/ref)
dl2.inv_rate                 0.0000 # invalidation rate (i.e., invs/ref)
itlb.accesses             102377249 # total number of accesses
itlb.hits                 102377199 # total number of hits
itlb.misses                      50 # total number of misses
itlb.replacements                 1 # total number of replacements
itlb.writebacks                   0 # total number of writebacks
itlb.invalidations                0 # total number of invalidations
itlb.miss_rate               0.0000 # miss rate (i.e., misses/ref)
itlb.repl_rate               0.0000 # replacement rate (i.e., repls/ref)
itlb.wb_rate                 0.0000 # writeback rate (i.e., wrbks/ref)
itlb.inv_rate                0.0000 # invalidation rate (i.e., invs/ref)
dtlb.accesses              40558479 # total number of accesses
dtlb.hits                  40226717 # total number of hits
dtlb.misses                  331762 # total number of misses
dtlb.replacements            331634 # total number of replacements
dtlb.writebacks                   0 # total number of writebacks
dtlb.invalidations                0 # total number of invalidations
dtlb.miss_rate               0.0082 # miss rate (i.e., misses/ref)
dtlb.repl_rate               0.0082 # replacement rate (i.e., repls/ref)
dtlb.wb_rate                 0.0000 # writeback rate (i.e., wrbks/ref)
dtlb.inv_rate                0.0000 # invalidation rate (i.e., invs/ref)
rename_power           213095462.4758 # total power usage of rename unit
bpred_power            555643805.3974 # total power usage of bpred unit
window_power           2499780376.9770 # total power usage of instruction window
lsq_power              270333782.8565 # total power usage of load/store queue
regfile_power          1564585601.1096 # total power usage of arch. regfile
icache_power           505046264.3297 # total power usage of icache
dcache_power           1072305149.6841 # total power usage of dcache
dcache2_power          516755808.7893 # total power usage of dcache2
alu_power              3154378237.9126 # total power usage of alu
falu_power             2378301048.4865 # total power usage of falu
resultbus_power        1678816031.5825 # total power usage of resultbus
clock_power            6190156839.5392 # total power usage of clock
avg_rename_power             1.2796 # avg power usage of rename unit
avg_bpred_power              3.3365 # avg power usage of bpred unit
avg_window_power            15.0105 # avg power usage of instruction window
avg_lsq_power                1.6233 # avg power usage of lsq
avg_regfile_power            9.3949 # avg power usage of arch. regfile
avg_icache_power             3.0327 # avg power usage of icache
avg_dcache_power             6.4389 # avg power usage of dcache
avg_dcache2_power            3.1030 # avg power usage of dcache2
avg_alu_power               18.9412 # avg power usage of alu
avg_falu_power              14.2810 # avg power usage of falu
avg_resultbus_power         10.0808 # avg power usage of resultbus
avg_clock_power             37.1702 # avg power usage of clock
fetch_stage_power      1060690069.7271 # total power usage of fetch stage
dispatch_stage_power   213095462.4758 # total power usage of dispatch stage
issue_stage_power      9192369387.8020 # total power usage of issue stage
avg_fetch_power              6.3692 # average power of fetch unit per cycle
avg_dispatch_power           1.2796 # average power of dispatch unit per cycle
avg_issue_power             55.1977 # average power of issue unit per cycle
total_power            18220897360.6537 # total power per cycle
avg_total_power_cycle      109.4115 # average total power per cycle
avg_total_power_cycle_nofp_nod2      92.0275 # average total power per cycle
avg_total_power_insn       182.2090 # average total power per insn
avg_total_power_insn_nofp_nod2     153.2584 # average total power per insn
rename_power_cc1       28316618.8547 # total power usage of rename unit_cc1
bpred_power_cc1              0.0000 # total power usage of bpred unit_cc1
window_power_cc1       679184137.0443 # total power usage of instruction window_cc1
lsq_power_cc1          18620128.1127 # total power usage of lsq_cc1
regfile_power_cc1      261169612.2361 # total power usage of arch. regfile_cc1
icache_power_cc1       68183070.6186 # total power usage of icache_cc1
dcache_power_cc1       164162197.8154 # total power usage of dcache_cc1
dcache2_power_cc1      12114407.6397 # total power usage of dcache2_cc1
alu_power_cc1          551225117.3421 # total power usage of alu_cc1
resultbus_power_cc1    421211870.0825 # total power usage of resultbus_cc1
clock_power_cc1        1122810984.5663 # total power usage of clock_cc1
avg_rename_power_cc1         0.1700 # avg power usage of rename unit_cc1
avg_bpred_power_cc1          0.0000 # avg power usage of bpred unit_cc1
avg_window_power_cc1         4.0783 # avg power usage of instruction window_cc1
avg_lsq_power_cc1            0.1118 # avg power usage of lsq_cc1
avg_regfile_power_cc1        1.5683 # avg power usage of arch. regfile_cc1
avg_icache_power_cc1         0.4094 # avg power usage of icache_cc1
avg_dcache_power_cc1         0.9857 # avg power usage of dcache_cc1
avg_dcache2_power_cc1        0.0727 # avg power usage of dcache2_cc1
avg_alu_power_cc1            3.3100 # avg power usage of alu_cc1
avg_resultbus_power_cc1       2.5293 # avg power usage of resultbus_cc1
avg_clock_power_cc1          6.7422 # avg power usage of clock_cc1
fetch_stage_power_cc1  68183070.6186 # total power usage of fetch stage_cc1
dispatch_stage_power_cc1 28316618.8547 # total power usage of dispatch stage_cc1
issue_stage_power_cc1  1846517858.0367 # total power usage of issue stage_cc1
avg_fetch_power_cc1          0.4094 # average power of fetch unit per cycle_cc1
avg_dispatch_power_cc1       0.1700 # average power of dispatch unit per cycle_cc1
avg_issue_power_cc1         11.0878 # average power of issue unit per cycle_cc1
total_power_cycle_cc1  3326998144.3124 # total power per cycle_cc1
avg_total_power_cycle_cc1      19.9777 # average total power per cycle_cc1
avg_total_power_insn_cc1      33.2700 # average total power per insn_cc1
rename_power_cc2       15994747.5798 # total power usage of rename unit_cc2
bpred_power_cc2              0.0000 # total power usage of bpred unit_cc2
window_power_cc2       303981736.8856 # total power usage of instruction window_cc2
lsq_power_cc2          13347829.3865 # total power usage of lsq_cc2
regfile_power_cc2      77757184.5333 # total power usage of arch. regfile_cc2
icache_power_cc2       68183070.6186 # total power usage of icache_cc2
dcache_power_cc2       130564536.4239 # total power usage of dcache_cc2
dcache2_power_cc2      8451149.6237 # total power usage of dcache2_cc2
alu_power_cc2          240493726.4178 # total power usage of alu_cc2
resultbus_power_cc2    153140555.1303 # total power usage of resultbus_cc2
clock_power_cc2        519826077.9888 # total power usage of clock_cc2
avg_rename_power_cc2         0.0960 # avg power usage of rename unit_cc2
avg_bpred_power_cc2          0.0000 # avg power usage of bpred unit_cc2
avg_window_power_cc2         1.8253 # avg power usage of instruction window_cc2
avg_lsq_power_cc2            0.0802 # avg power usage of instruction lsq_cc2
avg_regfile_power_cc2        0.4669 # avg power usage of arch. regfile_cc2
avg_icache_power_cc2         0.4094 # avg power usage of icache_cc2
avg_dcache_power_cc2         0.7840 # avg power usage of dcache_cc2
avg_dcache2_power_cc2        0.0507 # avg power usage of dcache2_cc2
avg_alu_power_cc2            1.4441 # avg power usage of alu_cc2
avg_resultbus_power_cc2       0.9196 # avg power usage of resultbus_cc2
avg_clock_power_cc2          3.1214 # avg power usage of clock_cc2
fetch_stage_power_cc2  68183070.6186 # total power usage of fetch stage_cc2
dispatch_stage_power_cc2 15994747.5798 # total power usage of dispatch stage_cc2
issue_stage_power_cc2  849979533.8678 # total power usage of issue stage_cc2
avg_fetch_power_cc2          0.4094 # average power of fetch unit per cycle_cc2
avg_dispatch_power_cc2       0.0960 # average power of dispatch unit per cycle_cc2
avg_issue_power_cc2          5.1039 # average power of issue unit per cycle_cc2
total_power_cycle_cc2  1531740614.5883 # total power per cycle_cc2
avg_total_power_cycle_cc2       9.1977 # average total power per cycle_cc2
avg_total_power_insn_cc2      15.3174 # average total power per insn_cc2
rename_power_cc3       34472632.0327 # total power usage of rename unit_cc3
bpred_power_cc3        55564380.4867 # total power usage of bpred unit_cc3
window_power_cc3       479549324.7127 # total power usage of instruction window_cc3
lsq_power_cc3          38452607.2760 # total power usage of lsq_cc3
regfile_power_cc3      205040383.0708 # total power usage of arch. regfile_cc3
icache_power_cc3       111869390.3579 # total power usage of icache_cc3
dcache_power_cc3       221966911.6296 # total power usage of dcache_cc3
dcache2_power_cc3      58941903.1068 # total power usage of dcache2_cc3
alu_power_cc3          500809037.2917 # total power usage of alu_cc3
resultbus_power_cc3    276128129.5544 # total power usage of resultbus_cc3
clock_power_cc3        1020617251.7512 # total power usage of clock_cc3
avg_rename_power_cc3         0.2070 # avg power usage of rename unit_cc3
avg_bpred_power_cc3          0.3336 # avg power usage of bpred unit_cc3
avg_window_power_cc3         2.8796 # avg power usage of instruction window_cc3
avg_lsq_power_cc3            0.2309 # avg power usage of instruction lsq_cc3
avg_regfile_power_cc3        1.2312 # avg power usage of arch. regfile_cc3
avg_icache_power_cc3         0.6717 # avg power usage of icache_cc3
avg_dcache_power_cc3         1.3329 # avg power usage of dcache_cc3
avg_dcache2_power_cc3        0.3539 # avg power usage of dcache2_cc3
avg_alu_power_cc3            3.0072 # avg power usage of alu_cc3
avg_resultbus_power_cc3       1.6581 # avg power usage of resultbus_cc3
avg_clock_power_cc3          6.1285 # avg power usage of clock_cc3
fetch_stage_power_cc3  167433770.8446 # total power usage of fetch stage_cc3
dispatch_stage_power_cc3 34472632.0327 # total power usage of dispatch stage_cc3
issue_stage_power_cc3  1575847913.5714 # total power usage of issue stage_cc3
avg_fetch_power_cc3          1.0054 # average power of fetch unit per cycle_cc3
avg_dispatch_power_cc3       0.2070 # average power of dispatch unit per cycle_cc3
avg_issue_power_cc3          9.4625 # average power of issue unit per cycle_cc3
total_power_cycle_cc3  3003411951.2708 # total power per cycle_cc3
avg_total_power_cycle_cc3      18.0347 # average total power per cycle_cc3
avg_total_power_insn_cc3      30.0341 # average total power per insn_cc3
total_rename_access       100000004 # total number accesses of rename unit
total_bpred_access                0 # total number accesses of bpred unit
total_window_access       426318652 # total number accesses of instruction window
total_lsq_access           40562028 # total number accesses of load/store queue
total_regfile_access      224462632 # total number accesses of arch. regfile
total_icache_access       102377249 # total number accesses of icache
total_dcache_access        40554932 # total number accesses of dcache
total_dcache2_access        5447124 # total number accesses of dcache2
total_alu_access           99555620 # total number accesses of alu
total_resultbus_access    129632131 # total number accesses of resultbus
avg_rename_access            0.6005 # avg number accesses of rename unit
avg_bpred_access             0.0000 # avg number accesses of bpred unit
avg_window_access            2.5599 # avg number accesses of instruction window
avg_lsq_access               0.2436 # avg number accesses of lsq
avg_regfile_access           1.3478 # avg number accesses of arch. regfile
avg_icache_access            0.6147 # avg number accesses of icache
avg_dcache_access            0.2435 # avg number accesses of dcache
avg_dcache2_access           0.0327 # avg number accesses of dcache2
avg_alu_access               0.5978 # avg number accesses of alu
avg_resultbus_access         0.7784 # avg number accesses of resultbus
max_rename_access                 8 # max number accesses of rename unit
max_bpred_access                  0 # max number accesses of bpred unit
max_window_access                27 # max number accesses of instruction window
max_lsq_access                    6 # max number accesses of load/store queue
max_regfile_access               24 # max number accesses of arch. regfile
max_icache_access                 8 # max number accesses of icache
max_dcache_access                 4 # max number accesses of dcache
max_dcache2_access                6 # max number accesses of dcache2
max_alu_access                    8 # max number accesses of alu
max_resultbus_access             12 # max number accesses of resultbus
max_cycle_power_cc1         82.6268 # maximum cycle power usage of cc1
max_cycle_power_cc2         62.7342 # maximum cycle power usage of cc2
max_cycle_power_cc3         66.3168 # maximum cycle power usage of cc3
sim_invalid_addrs                 0 # total non-speculative bogus addresses seen (debug var)
ld_text_base           0x0120000000 # program text (code) segment base
ld_text_size                1056768 # program text (code) size in bytes
ld_data_base           0x0140000000 # program initialized data segment base
ld_data_size              198995952 # program init'ed `.data' and uninit'ed `.bss' size in bytes
ld_stack_base          0x011ff9b000 # program stack segment base (highest address in stack)
ld_stack_size                 16384 # program initial stack size
ld_prog_entry          0x0120047548 # program entry point (initial PC)
ld_environ_base        0x011ff96cb0 # program environment base address address
ld_target_big_endian              0 # target executable endian-ness, non-zero if big endian
mem.page_count                23259 # total number of pages allocated
mem.page_mem                186072k # total size of memory pages allocated
mem.ptab_misses               36002 # total first level page table misses
mem.ptab_accesses        1212592992 # total page table accesses
mem.ptab_miss_rate           0.0000 # first level page table miss rate

