sim-outorder: SimpleScalar/Alpha Tool Set version 3.0 of August, 2003.
Copyright (c) 1994-2003 by Todd M. Austin, Ph.D. and SimpleScalar, LLC.
All Rights Reserved. This version of SimpleScalar is licensed for academic
non-commercial use.  No portion of this work may be used by any commercial
entity, or for any commercial purpose, without the prior written permission
of SimpleScalar, LLC (info@simplescalar.com).


Processor Parameters:
Issue Width: 8
Window Size: 64
Number of Virtual Registers: 32
Number of Physical Registers: 64
Datapath Width: 64
Total Power Consumption: 111.411
Branch Predictor Power Consumption: 3.33649  (3.05%)
 branch target buffer power (W): 2.49493
 local predict power (W): 0.574771
 global predict power (W): 0.0996078
 chooser power (W): 0.0702439
 RAS power (W): 0.0969383
Rename Logic Power Consumption: 1.27958  (1.17%)
 Instruction Decode Power (W): 0.0319831
 RAT decode_power (W): 0.227029
 RAT wordline_power (W): 0.0913687
 RAT bitline_power (W): 0.878297
 DCL Comparators (W): 0.0509018
Instruction Window Power Consumption: 15.0105  (13.7%)
 tagdrive (W): 1.06159
 tagmatch (W): 0.415138
 Selection Logic (W): 0.112742
 decode_power (W): 0.488291
 wordline_power (W): 0.288569
 bitline_power (W): 12.6442
Load/Store Queue Power Consumption: 1.62328  (1.48%)
 tagdrive (W): 0.457232
 tagmatch (W): 0.100875
 decode_power (W): 0.00799577
 wordline_power (W): 0.0150119
 bitline_power (W): 1.04217
Arch. Register File Power Consumption: 9.39491  (8.59%)
 decode_power (W): 0.227029
 wordline_power (W): 0.288569
 bitline_power (W): 8.87931
Result Bus Power Consumption: 10.0808  (9.21%)
Total Clock Power: 37.1702  (34%)
Int ALU Power: 4.66013  (4.26%)
FP ALU Power: 14.281  (13.1%)
Instruction Cache Power Consumption: 2.76773  (2.53%)
 decode_power (W): 0.151353
 wordline_power (W): 0.180479
 bitline_power (W): 1.42251
 senseamp_power (W): 0.768
 tagarray_power (W): 0.245382
Itlb_power (W): 0.264936 (0.242%)
Data Cache Power Consumption: 5.53546  (5.06%)
 decode_power (W): 0.302705
 wordline_power (W): 0.360958
 bitline_power (W): 2.84503
 senseamp_power (W): 1.536
 tagarray_power (W): 0.490764
Dtlb_power (W): 0.903441 (0.826%)
Level 2 Cache Power Consumption: 3.10298 (2.84%)
 decode_power (W): 0.19487
 wordline_power (W): 0.0430878
 bitline_power (W): 1.77274
 senseamp_power (W): 0.192
 tagarray_power (W): 0.900275
sim: loading EIO file: ../benchmarks/181.mcf.spec_ref.eio.gz
sim: command line: ./sim-outorder -config ../configs/current.config ../benchmarks/181.mcf.spec_ref.eio.gz 

sim: simulation started @ Tue Nov 24 11:09:24 2015, options follow:

sim-outorder: This simulator implements a very detailed out-of-order issue
superscalar processor with a two-level memory system and speculative
execution support.  This simulator is a performance simulator, tracking the
latency of all pipeline operations.

# -config                     # load configuration from a file
# -dumpconfig                 # dump configuration to a file
# -h                    false # print help message    
# -v                    false # verbose operation     
# -d                    false # enable debug message  
# -i                    false # start in Dlite debugger
-seed                       1 # random number generator seed (0 for timer seed)
# -q                    false # initialize and terminate immediately
# -chkpt               <null> # restore EIO trace execution from <fname>
# -redir:sim     ../results/18_17_width/181.mcf.spec_ref.eio.gz.out # redirect simulator output to file (non-interactive only)
# -redir:prog       /dev/null # redirect simulated program output to file
-nice                       0 # simulator scheduling priority
-freq            600000000.0000 # frequency             
-max:inst           100000000 # maximum number of inst's to execute
-fastfwd                    0 # number of insts skipped before timing starts
# -ptrace              <null> # generate pipetrace, i.e., <fname|stdout|stderr> <range>
-fetch:ifqsize              8 # instruction fetch queue size (in insts)
-fetch:mplat               15 # extra branch mis-prediction latency
-fetch:speed                1 # speed of front-end of machine relative to execution core
-bpred                perfect # branch predictor type {nottaken|taken|perfect|bimod|2lev|comb}
-bpred:bimod     2048 # bimodal predictor config (<table size>)
-bpred:2lev      1 16384 4 0 # 2-level predictor config (<l1size> <l2size> <hist_size> <xor>)
-bpred:comb      1024 # combining predictor config (<meta_table_size>)
-bpred:ras                  8 # return address stack size (0 for no return stack)
-bpred:btb       512 4 # BTB config (<num_sets> <associativity>)
# -bpred:spec_update       <null> # speculative predictors update in {ID|WB} (default non-spec)
-decode:width               8 # instruction decode B/W (insts/cycle)
-issue:width                8 # instruction issue B/W (insts/cycle)
-issue:inorder          false # run pipeline with in-order issue
-issue:wrongpath         true # issue instructions down wrong execution paths
-commit:width               8 # instruction commit B/W (insts/cycle)
-ruu:size                  64 # register update unit (RUU) size
-lsq:size                   8 # load/store queue (LSQ) size
-cache:dl1       dl1:32:64:8:f # l1 data cache config, i.e., {<config>|none}
-cache:dl1lat               1 # l1 data cache hit latency (in cycles)
-cache:dl2       dl2:256:64:8:f # l2 data cache config, i.e., {<config>|none}
-cache:dl2lat               2 # l2 data cache hit latency (in cycles)
-cache:il1       il1:32:64:8:f # l1 inst cache config, i.e., {<config>|dl1|dl2|none}
-cache:il1lat               1 # l1 instruction cache hit latency (in cycles)
-cache:il2                dl2 # l2 instruction cache config, i.e., {<config>|dl2|none}
-cache:il2lat               2 # l2 instruction cache hit latency (in cycles)
-cache:flush            false # flush caches on system calls
-cache:icompress        false # convert 64-bit inst addresses to 32-bit inst equivalents
-mem:lat         103 1 # memory access latency (<first_chunk> <inter_chunk>)
-mem:width                  8 # memory access bus width (in bytes)
-tlb:itlb        itlb:16:4096:4:l # instruction TLB config, i.e., {<config>|none}
-tlb:dtlb        dtlb:32:4096:4:l # data TLB config, i.e., {<config>|none}
-tlb:lat                   30 # inst/data TLB miss latency (in cycles)
-res:ialu                   4 # total number of integer ALU's available
-res:imult                  1 # total number of integer multiplier/dividers available
-res:memport                2 # total number of memory system ports available (to CPU)
-res:fpalu                  4 # total number of floating point ALU's available
-res:fpmult                 1 # total number of floating point multiplier/dividers available
# -pcstat              <null> # profile stat(s) against text addr's (mult uses ok)
-bugcompat              false # operate in backward-compatible bugs mode (for testing only)

  Pipetrace range arguments are formatted as follows:

    {{@|#}<start>}:{{@|#|+}<end>}

  Both ends of the range are optional, if neither are specified, the entire
  execution is traced.  Ranges that start with a `@' designate an address
  range to be traced, those that start with an `#' designate a cycle count
  range.  All other range values represent an instruction count range.  The
  second argument, if specified with a `+', indicates a value relative
  to the first argument, e.g., 1000:+100 == 1000:1100.  Program symbols may
  be used in all contexts.

    Examples:   -ptrace FOO.trc #0:#1000
                -ptrace BAR.trc @2000:
                -ptrace BLAH.trc :1500
                -ptrace UXXE.trc :
                -ptrace FOOBAR.trc @main:+278

  Branch predictor configuration examples for 2-level predictor:
    Configurations:   N, M, W, X
      N   # entries in first level (# of shift register(s))
      W   width of shift register(s)
      M   # entries in 2nd level (# of counters, or other FSM)
      X   (yes-1/no-0) xor history and address for 2nd level index
    Sample predictors:
      GAg     : 1, W, 2^W, 0
      GAp     : 1, W, M (M > 2^W), 0
      PAg     : N, W, 2^W, 0
      PAp     : N, W, M (M == 2^(N+W)), 0
      gshare  : 1, W, 2^W, 1
  Predictor `comb' combines a bimodal and a 2-level predictor.

  The cache config parameter <config> has the following format:

    <name>:<nsets>:<bsize>:<assoc>:<repl>

    <name>   - name of the cache being defined
    <nsets>  - number of sets in the cache
    <bsize>  - block size of the cache
    <assoc>  - associativity of the cache
    <repl>   - block replacement strategy, 'l'-LRU, 'f'-FIFO, 'r'-random

    Examples:   -cache:dl1 dl1:4096:32:1:l
                -dtlb dtlb:128:4096:32:r

  Cache levels can be unified by pointing a level of the instruction cache
  hierarchy at the data cache hiearchy using the "dl1" and "dl2" cache
  configuration arguments.  Most sensible combinations are supported, e.g.,

    A unified l2 cache (il2 is pointed at dl2):
      -cache:il1 il1:128:64:1:l -cache:il2 dl2
      -cache:dl1 dl1:256:32:1:l -cache:dl2 ul2:1024:64:2:l

    Or, a fully unified cache hierarchy (il1 pointed at dl1):
      -cache:il1 dl1
      -cache:dl1 ul1:256:32:1:l -cache:dl2 ul2:1024:64:2:l



sim: ** starting performance simulation **

sim: ** simulation statistics **
sim_num_insn              100000002 # total number of instructions committed
sim_num_refs               46842322 # total number of loads and stores committed
sim_num_loads              39933138 # total number of loads committed
sim_num_stores         6909184.0000 # total number of stores committed
sim_num_branches           23131426 # total number of branches committed
sim_elapsed_time                276 # total simulation time in seconds
sim_inst_rate           362318.8478 # simulation speed (in insts/sec)
sim_total_insn            100000002 # total number of instructions executed
sim_total_refs             46842322 # total number of loads and stores executed
sim_total_loads            39933138 # total number of loads executed
sim_total_stores       6909184.0000 # total number of stores executed
sim_total_branches         23131426 # total number of branches executed
sim_cycle                 572703844 # total simulation time in cycles
sim_IPC                      0.1746 # instructions per cycle
sim_CPI                      5.7270 # cycles per instruction
sim_exec_BW                  0.1746 # total instructions (mis-spec + committed) per cycle
sim_IPB                      4.3231 # instruction per branch
IFQ_count                4581590524 # cumulative IFQ occupancy
IFQ_fcount                572698559 # cumulative IFQ full count
ifq_occupancy                7.9999 # avg IFQ occupancy (insn's)
ifq_rate                     0.1746 # avg IFQ dispatch rate (insn/cycle)
ifq_latency                 45.8159 # avg IFQ occupant latency (cycle's)
ifq_full                     1.0000 # fraction of time (cycle's) IFQ was full
RUU_count                8860683162 # cumulative RUU occupancy
RUU_fcount                        0 # cumulative RUU full count
ruu_occupancy               15.4717 # avg RUU occupancy (insn's)
ruu_rate                     0.1746 # avg RUU dispatch rate (insn/cycle)
ruu_latency                 88.6068 # avg RUU occupant latency (cycle's)
ruu_full                     0.0000 # fraction of time (cycle's) RUU was full
LSQ_count                4554431680 # cumulative LSQ occupancy
LSQ_fcount                559605239 # cumulative LSQ full count
lsq_occupancy                7.9525 # avg LSQ occupancy (insn's)
lsq_rate                     0.1746 # avg LSQ dispatch rate (insn/cycle)
lsq_latency                 45.5443 # avg LSQ occupant latency (cycle's)
lsq_full                     0.9771 # fraction of time (cycle's) LSQ was full
sim_slip                13561957117 # total number of slip cycles
avg_sim_slip               135.6196 # the average slip between issue and retirement
il1.accesses              160766776 # total number of accesses
il1.hits                  160766728 # total number of hits
il1.misses                       48 # total number of misses
il1.replacements                  0 # total number of replacements
il1.writebacks                    0 # total number of writebacks
il1.invalidations                 0 # total number of invalidations
il1.miss_rate                0.0000 # miss rate (i.e., misses/ref)
il1.repl_rate                0.0000 # replacement rate (i.e., repls/ref)
il1.wb_rate                  0.0000 # writeback rate (i.e., wrbks/ref)
il1.inv_rate                 0.0000 # invalidation rate (i.e., invs/ref)
dl1.accesses               46482420 # total number of accesses
dl1.hits                   34129264 # total number of hits
dl1.misses                 12353156 # total number of misses
dl1.replacements           12352900 # total number of replacements
dl1.writebacks              5234638 # total number of writebacks
dl1.invalidations                 0 # total number of invalidations
dl1.miss_rate                0.2658 # miss rate (i.e., misses/ref)
dl1.repl_rate                0.2658 # replacement rate (i.e., repls/ref)
dl1.wb_rate                  0.1126 # writeback rate (i.e., wrbks/ref)
dl1.inv_rate                 0.0000 # invalidation rate (i.e., invs/ref)
dl2.accesses               17587842 # total number of accesses
dl2.hits                    6189964 # total number of hits
dl2.misses                 11397878 # total number of misses
dl2.replacements           11395830 # total number of replacements
dl2.writebacks              5024571 # total number of writebacks
dl2.invalidations                 0 # total number of invalidations
dl2.miss_rate                0.6481 # miss rate (i.e., misses/ref)
dl2.repl_rate                0.6479 # replacement rate (i.e., repls/ref)
dl2.wb_rate                  0.2857 # writeback rate (i.e., wrbks/ref)
dl2.inv_rate                 0.0000 # invalidation rate (i.e., invs/ref)
itlb.accesses             160766776 # total number of accesses
itlb.hits                 160766773 # total number of hits
itlb.misses                       3 # total number of misses
itlb.replacements                 0 # total number of replacements
itlb.writebacks                   0 # total number of writebacks
itlb.invalidations                0 # total number of invalidations
itlb.miss_rate               0.0000 # miss rate (i.e., misses/ref)
itlb.repl_rate               0.0000 # replacement rate (i.e., repls/ref)
itlb.wb_rate                 0.0000 # writeback rate (i.e., wrbks/ref)
itlb.inv_rate                0.0000 # invalidation rate (i.e., invs/ref)
dtlb.accesses              46842320 # total number of accesses
dtlb.hits                  41755126 # total number of hits
dtlb.misses                 5087194 # total number of misses
dtlb.replacements           5087066 # total number of replacements
dtlb.writebacks                   0 # total number of writebacks
dtlb.invalidations                0 # total number of invalidations
dtlb.miss_rate               0.1086 # miss rate (i.e., misses/ref)
dtlb.repl_rate               0.1086 # replacement rate (i.e., repls/ref)
dtlb.wb_rate                 0.0000 # writeback rate (i.e., wrbks/ref)
dtlb.inv_rate                0.0000 # invalidation rate (i.e., invs/ref)
rename_power           732820246.3827 # total power usage of rename unit
bpred_power            1910819788.2426 # total power usage of bpred unit
window_power           8596568258.7500 # total power usage of instruction window
lsq_power              929658790.6307 # total power usage of load/store queue
regfile_power          5380499362.0221 # total power usage of arch. regfile
icache_power           1736818460.0165 # total power usage of icache
dcache_power           3687581684.0487 # total power usage of dcache
dcache2_power          1777086738.0963 # total power usage of dcache2
alu_power              10847683994.5984 # total power usage of alu
falu_power             8178809344.8019 # total power usage of falu
resultbus_power        5773329833.0615 # total power usage of resultbus
clock_power            21287512239.1544 # total power usage of clock
avg_rename_power             1.2796 # avg power usage of rename unit
avg_bpred_power              3.3365 # avg power usage of bpred unit
avg_window_power            15.0105 # avg power usage of instruction window
avg_lsq_power                1.6233 # avg power usage of lsq
avg_regfile_power            9.3949 # avg power usage of arch. regfile
avg_icache_power             3.0327 # avg power usage of icache
avg_dcache_power             6.4389 # avg power usage of dcache
avg_dcache2_power            3.1030 # avg power usage of dcache2
avg_alu_power               18.9412 # avg power usage of alu
avg_falu_power              14.2810 # avg power usage of falu
avg_resultbus_power         10.0808 # avg power usage of resultbus
avg_clock_power             37.1702 # avg power usage of clock
fetch_stage_power      3647638248.2591 # total power usage of fetch stage
dispatch_stage_power   732820246.3827 # total power usage of dispatch stage
issue_stage_power      31611909299.1856 # total power usage of issue stage
avg_fetch_power              6.3692 # average power of fetch unit per cycle
avg_dispatch_power           1.2796 # average power of dispatch unit per cycle
avg_issue_power             55.1977 # average power of issue unit per cycle
total_power            62660379395.0039 # total power per cycle
avg_total_power_cycle      109.4115 # average total power per cycle
avg_total_power_cycle_nofp_nod2      92.0275 # average total power per cycle
avg_total_power_insn       626.6038 # average total power per insn
avg_total_power_insn_nofp_nod2     527.0448 # average total power per insn
rename_power_cc1       42079533.0441 # total power usage of rename unit_cc1
bpred_power_cc1              0.0000 # total power usage of bpred unit_cc1
window_power_cc1       811020279.4425 # total power usage of instruction window_cc1
lsq_power_cc1          19735302.0322 # total power usage of lsq_cc1
regfile_power_cc1      287020550.7204 # total power usage of arch. regfile_cc1
icache_power_cc1       99730550.9618 # total power usage of icache_cc1
dcache_power_cc1       208062691.6894 # total power usage of dcache_cc1
dcache2_power_cc1      34823558.6651 # total power usage of dcache2_cc1
alu_power_cc1          204738581.3238 # total power usage of alu_cc1
resultbus_power_cc1    502960035.3885 # total power usage of resultbus_cc1
clock_power_cc1        1168810564.9406 # total power usage of clock_cc1
avg_rename_power_cc1         0.0735 # avg power usage of rename unit_cc1
avg_bpred_power_cc1          0.0000 # avg power usage of bpred unit_cc1
avg_window_power_cc1         1.4161 # avg power usage of instruction window_cc1
avg_lsq_power_cc1            0.0345 # avg power usage of lsq_cc1
avg_regfile_power_cc1        0.5012 # avg power usage of arch. regfile_cc1
avg_icache_power_cc1         0.1741 # avg power usage of icache_cc1
avg_dcache_power_cc1         0.3633 # avg power usage of dcache_cc1
avg_dcache2_power_cc1        0.0608 # avg power usage of dcache2_cc1
avg_alu_power_cc1            0.3575 # avg power usage of alu_cc1
avg_resultbus_power_cc1       0.8782 # avg power usage of resultbus_cc1
avg_clock_power_cc1          2.0409 # avg power usage of clock_cc1
fetch_stage_power_cc1  99730550.9618 # total power usage of fetch stage_cc1
dispatch_stage_power_cc1 42079533.0441 # total power usage of dispatch stage_cc1
issue_stage_power_cc1  1781340448.5416 # total power usage of issue stage_cc1
avg_fetch_power_cc1          0.1741 # average power of fetch unit per cycle_cc1
avg_dispatch_power_cc1       0.0735 # average power of dispatch unit per cycle_cc1
avg_issue_power_cc1          3.1104 # average power of issue unit per cycle_cc1
total_power_cycle_cc1  3378981648.2085 # total power per cycle_cc1
avg_total_power_cycle_cc1       5.9001 # average total power per cycle_cc1
avg_total_power_insn_cc1      33.7898 # average total power per insn_cc1
rename_power_cc2       15994747.2624 # total power usage of rename unit_cc2
bpred_power_cc2              0.0000 # total power usage of bpred unit_cc2
window_power_cc2       279996348.3993 # total power usage of instruction window_cc2
lsq_power_cc2          13753954.2790 # total power usage of lsq_cc2
regfile_power_cc2      41534662.4640 # total power usage of arch. regfile_cc2
icache_power_cc2       99730550.9618 # total power usage of icache_cc2
dcache_power_cc2       149647781.9342 # total power usage of dcache_cc2
dcache2_power_cc2      27287332.5993 # total power usage of dcache2_cc2
alu_power_cc2          116503254.3349 # total power usage of alu_cc2
resultbus_power_cc2    137983368.4899 # total power usage of resultbus_cc2
clock_power_cc2        459534431.8256 # total power usage of clock_cc2
avg_rename_power_cc2         0.0279 # avg power usage of rename unit_cc2
avg_bpred_power_cc2          0.0000 # avg power usage of bpred unit_cc2
avg_window_power_cc2         0.4889 # avg power usage of instruction window_cc2
avg_lsq_power_cc2            0.0240 # avg power usage of instruction lsq_cc2
avg_regfile_power_cc2        0.0725 # avg power usage of arch. regfile_cc2
avg_icache_power_cc2         0.1741 # avg power usage of icache_cc2
avg_dcache_power_cc2         0.2613 # avg power usage of dcache_cc2
avg_dcache2_power_cc2        0.0476 # avg power usage of dcache2_cc2
avg_alu_power_cc2            0.2034 # avg power usage of alu_cc2
avg_resultbus_power_cc2       0.2409 # avg power usage of resultbus_cc2
avg_clock_power_cc2          0.8024 # avg power usage of clock_cc2
fetch_stage_power_cc2  99730550.9618 # total power usage of fetch stage_cc2
dispatch_stage_power_cc2 15994747.2624 # total power usage of dispatch stage_cc2
issue_stage_power_cc2  725172040.0366 # total power usage of issue stage_cc2
avg_fetch_power_cc2          0.1741 # average power of fetch unit per cycle_cc2
avg_dispatch_power_cc2       0.0279 # average power of dispatch unit per cycle_cc2
avg_issue_power_cc2          1.2662 # average power of issue unit per cycle_cc2
total_power_cycle_cc2  1341966432.5506 # total power per cycle_cc2
avg_total_power_cycle_cc2       2.3432 # average total power per cycle_cc2
avg_total_power_insn_cc2      13.4197 # average total power per insn_cc2
rename_power_cc3       85068818.3824 # total power usage of rename unit_cc3
bpred_power_cc3        191081980.3581 # total power usage of bpred unit_cc3
window_power_cc3       1047936245.7265 # total power usage of instruction window_cc3
lsq_power_cc3          104546181.1848 # total power usage of lsq_cc3
regfile_power_cc3      547185248.5181 # total power usage of arch. regfile_cc3
icache_power_cc3       263439336.6255 # total power usage of icache_cc3
dcache_power_cc3       498012989.5013 # total power usage of dcache_cc3
dcache2_power_cc3      201885483.4742 # total power usage of dcache2_cc3
alu_power_cc3          1180797807.7041 # total power usage of alu_cc3
resultbus_power_cc3    661667276.4723 # total power usage of resultbus_cc3
clock_power_cc3        2462018090.2085 # total power usage of clock_cc3
avg_rename_power_cc3         0.1485 # avg power usage of rename unit_cc3
avg_bpred_power_cc3          0.3336 # avg power usage of bpred unit_cc3
avg_window_power_cc3         1.8298 # avg power usage of instruction window_cc3
avg_lsq_power_cc3            0.1825 # avg power usage of instruction lsq_cc3
avg_regfile_power_cc3        0.9554 # avg power usage of arch. regfile_cc3
avg_icache_power_cc3         0.4600 # avg power usage of icache_cc3
avg_dcache_power_cc3         0.8696 # avg power usage of dcache_cc3
avg_dcache2_power_cc3        0.3525 # avg power usage of dcache2_cc3
avg_alu_power_cc3            2.0618 # avg power usage of alu_cc3
avg_resultbus_power_cc3       1.1553 # avg power usage of resultbus_cc3
avg_clock_power_cc3          4.2989 # avg power usage of clock_cc3
fetch_stage_power_cc3  454521316.9836 # total power usage of fetch stage_cc3
dispatch_stage_power_cc3 85068818.3824 # total power usage of dispatch stage_cc3
issue_stage_power_cc3  3694845984.0631 # total power usage of issue stage_cc3
avg_fetch_power_cc3          0.7936 # average power of fetch unit per cycle_cc3
avg_dispatch_power_cc3       0.1485 # average power of dispatch unit per cycle_cc3
avg_issue_power_cc3          6.4516 # average power of issue unit per cycle_cc3
total_power_cycle_cc3  7243639458.1557 # total power per cycle_cc3
avg_total_power_cycle_cc3      12.6481 # average total power per cycle_cc3
avg_total_power_insn_cc3      72.4364 # average total power per insn_cc3
total_rename_access       100000002 # total number accesses of rename unit
total_bpred_access                0 # total number accesses of bpred unit
total_window_access       389373356 # total number accesses of instruction window
total_lsq_access           47202220 # total number accesses of load/store queue
total_regfile_access      119444757 # total number accesses of arch. regfile
total_icache_access       160766776 # total number accesses of icache
total_dcache_access        46482420 # total number accesses of dcache
total_dcache2_access       17587842 # total number accesses of dcache2
total_alu_access           99999994 # total number accesses of alu
total_resultbus_access    116801706 # total number accesses of resultbus
avg_rename_access            0.1746 # avg number accesses of rename unit
avg_bpred_access             0.0000 # avg number accesses of bpred unit
avg_window_access            0.6799 # avg number accesses of instruction window
avg_lsq_access               0.0824 # avg number accesses of lsq
avg_regfile_access           0.2086 # avg number accesses of arch. regfile
avg_icache_access            0.2807 # avg number accesses of icache
avg_dcache_access            0.0812 # avg number accesses of dcache
avg_dcache2_access           0.0307 # avg number accesses of dcache2
avg_alu_access               0.1746 # avg number accesses of alu
avg_resultbus_access         0.2039 # avg number accesses of resultbus
max_rename_access                 8 # max number accesses of rename unit
max_bpred_access                  0 # max number accesses of bpred unit
max_window_access                23 # max number accesses of instruction window
max_lsq_access                    5 # max number accesses of load/store queue
max_regfile_access               20 # max number accesses of arch. regfile
max_icache_access                 8 # max number accesses of icache
max_dcache_access                 4 # max number accesses of dcache
max_dcache2_access                7 # max number accesses of dcache2
max_alu_access                    5 # max number accesses of alu
max_resultbus_access              8 # max number accesses of resultbus
max_cycle_power_cc1         58.5675 # maximum cycle power usage of cc1
max_cycle_power_cc2         46.3600 # maximum cycle power usage of cc2
max_cycle_power_cc3         51.7241 # maximum cycle power usage of cc3
sim_invalid_addrs                 0 # total non-speculative bogus addresses seen (debug var)
ld_text_base           0x0120000000 # program text (code) segment base
ld_text_size                 163840 # program text (code) size in bytes
ld_data_base           0x0140000000 # program initialized data segment base
ld_data_size                  80448 # program init'ed `.data' and uninit'ed `.bss' size in bytes
ld_stack_base          0x011ff9b000 # program stack segment base (highest address in stack)
ld_stack_size                 16384 # program initial stack size
ld_prog_entry          0x0120007edc # program entry point (initial PC)
ld_environ_base        0x011ff96f00 # program environment base address address
ld_target_big_endian              0 # target executable endian-ness, non-zero if big endian
mem.page_count                24329 # total number of pages allocated
mem.page_mem                194632k # total size of memory pages allocated
mem.ptab_misses             5562506 # total first level page table misses
mem.ptab_accesses        1449336248 # total page table accesses
mem.ptab_miss_rate           0.0038 # first level page table miss rate

