sim-outorder: SimpleScalar/Alpha Tool Set version 3.0 of August, 2003.
Copyright (c) 1994-2003 by Todd M. Austin, Ph.D. and SimpleScalar, LLC.
All Rights Reserved. This version of SimpleScalar is licensed for academic
non-commercial use.  No portion of this work may be used by any commercial
entity, or for any commercial purpose, without the prior written permission
of SimpleScalar, LLC (info@simplescalar.com).


Processor Parameters:
Issue Width: 8
Window Size: 64
Number of Virtual Registers: 32
Number of Physical Registers: 64
Datapath Width: 64
Total Power Consumption: 111.411
Branch Predictor Power Consumption: 3.33649  (3.05%)
 branch target buffer power (W): 2.49493
 local predict power (W): 0.574771
 global predict power (W): 0.0996078
 chooser power (W): 0.0702439
 RAS power (W): 0.0969383
Rename Logic Power Consumption: 1.27958  (1.17%)
 Instruction Decode Power (W): 0.0319831
 RAT decode_power (W): 0.227029
 RAT wordline_power (W): 0.0913687
 RAT bitline_power (W): 0.878297
 DCL Comparators (W): 0.0509018
Instruction Window Power Consumption: 15.0105  (13.7%)
 tagdrive (W): 1.06159
 tagmatch (W): 0.415138
 Selection Logic (W): 0.112742
 decode_power (W): 0.488291
 wordline_power (W): 0.288569
 bitline_power (W): 12.6442
Load/Store Queue Power Consumption: 1.62328  (1.48%)
 tagdrive (W): 0.457232
 tagmatch (W): 0.100875
 decode_power (W): 0.00799577
 wordline_power (W): 0.0150119
 bitline_power (W): 1.04217
Arch. Register File Power Consumption: 9.39491  (8.59%)
 decode_power (W): 0.227029
 wordline_power (W): 0.288569
 bitline_power (W): 8.87931
Result Bus Power Consumption: 10.0808  (9.21%)
Total Clock Power: 37.1702  (34%)
Int ALU Power: 4.66013  (4.26%)
FP ALU Power: 14.281  (13.1%)
Instruction Cache Power Consumption: 2.76773  (2.53%)
 decode_power (W): 0.151353
 wordline_power (W): 0.180479
 bitline_power (W): 1.42251
 senseamp_power (W): 0.768
 tagarray_power (W): 0.245382
Itlb_power (W): 0.264936 (0.242%)
Data Cache Power Consumption: 5.53546  (5.06%)
 decode_power (W): 0.302705
 wordline_power (W): 0.360958
 bitline_power (W): 2.84503
 senseamp_power (W): 1.536
 tagarray_power (W): 0.490764
Dtlb_power (W): 0.903441 (0.826%)
Level 2 Cache Power Consumption: 3.10298 (2.84%)
 decode_power (W): 0.19487
 wordline_power (W): 0.0430878
 bitline_power (W): 1.77274
 senseamp_power (W): 0.192
 tagarray_power (W): 0.900275
sim: loading EIO file: ../benchmarks/191.fma3d.spec_ref.eio.gz
sim: command line: ./sim-outorder -config ../configs/current.config ../benchmarks/191.fma3d.spec_ref.eio.gz 

sim: simulation started @ Tue Nov 24 11:09:21 2015, options follow:

sim-outorder: This simulator implements a very detailed out-of-order issue
superscalar processor with a two-level memory system and speculative
execution support.  This simulator is a performance simulator, tracking the
latency of all pipeline operations.

# -config                     # load configuration from a file
# -dumpconfig                 # dump configuration to a file
# -h                    false # print help message    
# -v                    false # verbose operation     
# -d                    false # enable debug message  
# -i                    false # start in Dlite debugger
-seed                       1 # random number generator seed (0 for timer seed)
# -q                    false # initialize and terminate immediately
# -chkpt               <null> # restore EIO trace execution from <fname>
# -redir:sim     ../results/18_17_width/191.fma3d.spec_ref.eio.gz.out # redirect simulator output to file (non-interactive only)
# -redir:prog       /dev/null # redirect simulated program output to file
-nice                       0 # simulator scheduling priority
-freq            600000000.0000 # frequency             
-max:inst           100000000 # maximum number of inst's to execute
-fastfwd                    0 # number of insts skipped before timing starts
# -ptrace              <null> # generate pipetrace, i.e., <fname|stdout|stderr> <range>
-fetch:ifqsize              8 # instruction fetch queue size (in insts)
-fetch:mplat               15 # extra branch mis-prediction latency
-fetch:speed                1 # speed of front-end of machine relative to execution core
-bpred                perfect # branch predictor type {nottaken|taken|perfect|bimod|2lev|comb}
-bpred:bimod     2048 # bimodal predictor config (<table size>)
-bpred:2lev      1 16384 4 0 # 2-level predictor config (<l1size> <l2size> <hist_size> <xor>)
-bpred:comb      1024 # combining predictor config (<meta_table_size>)
-bpred:ras                  8 # return address stack size (0 for no return stack)
-bpred:btb       512 4 # BTB config (<num_sets> <associativity>)
# -bpred:spec_update       <null> # speculative predictors update in {ID|WB} (default non-spec)
-decode:width               8 # instruction decode B/W (insts/cycle)
-issue:width                8 # instruction issue B/W (insts/cycle)
-issue:inorder          false # run pipeline with in-order issue
-issue:wrongpath         true # issue instructions down wrong execution paths
-commit:width               8 # instruction commit B/W (insts/cycle)
-ruu:size                  64 # register update unit (RUU) size
-lsq:size                   8 # load/store queue (LSQ) size
-cache:dl1       dl1:32:64:8:f # l1 data cache config, i.e., {<config>|none}
-cache:dl1lat               1 # l1 data cache hit latency (in cycles)
-cache:dl2       dl2:256:64:8:f # l2 data cache config, i.e., {<config>|none}
-cache:dl2lat               2 # l2 data cache hit latency (in cycles)
-cache:il1       il1:32:64:8:f # l1 inst cache config, i.e., {<config>|dl1|dl2|none}
-cache:il1lat               1 # l1 instruction cache hit latency (in cycles)
-cache:il2                dl2 # l2 instruction cache config, i.e., {<config>|dl2|none}
-cache:il2lat               2 # l2 instruction cache hit latency (in cycles)
-cache:flush            false # flush caches on system calls
-cache:icompress        false # convert 64-bit inst addresses to 32-bit inst equivalents
-mem:lat         103 1 # memory access latency (<first_chunk> <inter_chunk>)
-mem:width                  8 # memory access bus width (in bytes)
-tlb:itlb        itlb:16:4096:4:l # instruction TLB config, i.e., {<config>|none}
-tlb:dtlb        dtlb:32:4096:4:l # data TLB config, i.e., {<config>|none}
-tlb:lat                   30 # inst/data TLB miss latency (in cycles)
-res:ialu                   4 # total number of integer ALU's available
-res:imult                  1 # total number of integer multiplier/dividers available
-res:memport                2 # total number of memory system ports available (to CPU)
-res:fpalu                  4 # total number of floating point ALU's available
-res:fpmult                 1 # total number of floating point multiplier/dividers available
# -pcstat              <null> # profile stat(s) against text addr's (mult uses ok)
-bugcompat              false # operate in backward-compatible bugs mode (for testing only)

  Pipetrace range arguments are formatted as follows:

    {{@|#}<start>}:{{@|#|+}<end>}

  Both ends of the range are optional, if neither are specified, the entire
  execution is traced.  Ranges that start with a `@' designate an address
  range to be traced, those that start with an `#' designate a cycle count
  range.  All other range values represent an instruction count range.  The
  second argument, if specified with a `+', indicates a value relative
  to the first argument, e.g., 1000:+100 == 1000:1100.  Program symbols may
  be used in all contexts.

    Examples:   -ptrace FOO.trc #0:#1000
                -ptrace BAR.trc @2000:
                -ptrace BLAH.trc :1500
                -ptrace UXXE.trc :
                -ptrace FOOBAR.trc @main:+278

  Branch predictor configuration examples for 2-level predictor:
    Configurations:   N, M, W, X
      N   # entries in first level (# of shift register(s))
      W   width of shift register(s)
      M   # entries in 2nd level (# of counters, or other FSM)
      X   (yes-1/no-0) xor history and address for 2nd level index
    Sample predictors:
      GAg     : 1, W, 2^W, 0
      GAp     : 1, W, M (M > 2^W), 0
      PAg     : N, W, 2^W, 0
      PAp     : N, W, M (M == 2^(N+W)), 0
      gshare  : 1, W, 2^W, 1
  Predictor `comb' combines a bimodal and a 2-level predictor.

  The cache config parameter <config> has the following format:

    <name>:<nsets>:<bsize>:<assoc>:<repl>

    <name>   - name of the cache being defined
    <nsets>  - number of sets in the cache
    <bsize>  - block size of the cache
    <assoc>  - associativity of the cache
    <repl>   - block replacement strategy, 'l'-LRU, 'f'-FIFO, 'r'-random

    Examples:   -cache:dl1 dl1:4096:32:1:l
                -dtlb dtlb:128:4096:32:r

  Cache levels can be unified by pointing a level of the instruction cache
  hierarchy at the data cache hiearchy using the "dl1" and "dl2" cache
  configuration arguments.  Most sensible combinations are supported, e.g.,

    A unified l2 cache (il2 is pointed at dl2):
      -cache:il1 il1:128:64:1:l -cache:il2 dl2
      -cache:dl1 dl1:256:32:1:l -cache:dl2 ul2:1024:64:2:l

    Or, a fully unified cache hierarchy (il1 pointed at dl1):
      -cache:il1 dl1
      -cache:dl1 ul1:256:32:1:l -cache:dl2 ul2:1024:64:2:l



sim: ** starting performance simulation **

sim: ** simulation statistics **
sim_num_insn              100000002 # total number of instructions committed
sim_num_refs               45680045 # total number of loads and stores committed
sim_num_loads              29662892 # total number of loads committed
sim_num_stores         16017153.0000 # total number of stores committed
sim_num_branches            2494454 # total number of branches committed
sim_elapsed_time                124 # total simulation time in seconds
sim_inst_rate           806451.6290 # simulation speed (in insts/sec)
sim_total_insn            100000002 # total number of instructions executed
sim_total_refs             45680045 # total number of loads and stores executed
sim_total_loads            29662892 # total number of loads executed
sim_total_stores       16017153.0000 # total number of stores executed
sim_total_branches          2494454 # total number of branches executed
sim_cycle                  78407583 # total simulation time in cycles
sim_IPC                      1.2754 # instructions per cycle
sim_CPI                      0.7841 # cycles per instruction
sim_exec_BW                  1.2754 # total instructions (mis-spec + committed) per cycle
sim_IPB                     40.0889 # instruction per branch
IFQ_count                 589324210 # cumulative IFQ occupancy
IFQ_fcount                 72250524 # cumulative IFQ full count
ifq_occupancy                7.5162 # avg IFQ occupancy (insn's)
ifq_rate                     1.2754 # avg IFQ dispatch rate (insn/cycle)
ifq_latency                  5.8932 # avg IFQ occupant latency (cycle's)
ifq_full                     0.9215 # fraction of time (cycle's) IFQ was full
RUU_count                1459456049 # cumulative RUU occupancy
RUU_fcount                    49151 # cumulative RUU full count
ruu_occupancy               18.6137 # avg RUU occupancy (insn's)
ruu_rate                     1.2754 # avg RUU dispatch rate (insn/cycle)
ruu_latency                 14.5946 # avg RUU occupant latency (cycle's)
ruu_full                     0.0006 # fraction of time (cycle's) RUU was full
LSQ_count                 592810874 # cumulative LSQ occupancy
LSQ_fcount                 68733627 # cumulative LSQ full count
lsq_occupancy                7.5606 # avg LSQ occupancy (insn's)
lsq_rate                     1.2754 # avg LSQ dispatch rate (insn/cycle)
lsq_latency                  5.9281 # avg LSQ occupant latency (cycle's)
lsq_full                     0.8766 # fraction of time (cycle's) LSQ was full
sim_slip                 2197946893 # total number of slip cycles
avg_sim_slip                21.9795 # the average slip between issue and retirement
il1.accesses              109908504 # total number of accesses
il1.hits                  108080414 # total number of hits
il1.misses                  1828090 # total number of misses
il1.replacements            1827840 # total number of replacements
il1.writebacks                    0 # total number of writebacks
il1.invalidations                 0 # total number of invalidations
il1.miss_rate                0.0166 # miss rate (i.e., misses/ref)
il1.repl_rate                0.0166 # replacement rate (i.e., repls/ref)
il1.wb_rate                  0.0000 # writeback rate (i.e., wrbks/ref)
il1.inv_rate                 0.0000 # invalidation rate (i.e., invs/ref)
dl1.accesses               45038727 # total number of accesses
dl1.hits                   44510692 # total number of hits
dl1.misses                   528035 # total number of misses
dl1.replacements             527779 # total number of replacements
dl1.writebacks               299112 # total number of writebacks
dl1.invalidations                 0 # total number of invalidations
dl1.miss_rate                0.0117 # miss rate (i.e., misses/ref)
dl1.repl_rate                0.0117 # replacement rate (i.e., repls/ref)
dl1.wb_rate                  0.0066 # writeback rate (i.e., wrbks/ref)
dl1.inv_rate                 0.0000 # invalidation rate (i.e., invs/ref)
dl2.accesses                2655237 # total number of accesses
dl2.hits                    2308526 # total number of hits
dl2.misses                   346711 # total number of misses
dl2.replacements             344663 # total number of replacements
dl2.writebacks               181505 # total number of writebacks
dl2.invalidations                 0 # total number of invalidations
dl2.miss_rate                0.1306 # miss rate (i.e., misses/ref)
dl2.repl_rate                0.1298 # replacement rate (i.e., repls/ref)
dl2.wb_rate                  0.0684 # writeback rate (i.e., wrbks/ref)
dl2.inv_rate                 0.0000 # invalidation rate (i.e., invs/ref)
itlb.accesses             109908504 # total number of accesses
itlb.hits                 109908494 # total number of hits
itlb.misses                      10 # total number of misses
itlb.replacements                 0 # total number of replacements
itlb.writebacks                   0 # total number of writebacks
itlb.invalidations                0 # total number of invalidations
itlb.miss_rate               0.0000 # miss rate (i.e., misses/ref)
itlb.repl_rate               0.0000 # replacement rate (i.e., repls/ref)
itlb.wb_rate                 0.0000 # writeback rate (i.e., wrbks/ref)
itlb.inv_rate                0.0000 # invalidation rate (i.e., invs/ref)
dtlb.accesses              45680041 # total number of accesses
dtlb.hits                  45668548 # total number of hits
dtlb.misses                   11493 # total number of misses
dtlb.replacements             11365 # total number of replacements
dtlb.writebacks                   0 # total number of writebacks
dtlb.invalidations                0 # total number of invalidations
dtlb.miss_rate               0.0003 # miss rate (i.e., misses/ref)
dtlb.repl_rate               0.0002 # replacement rate (i.e., repls/ref)
dtlb.wb_rate                 0.0000 # writeback rate (i.e., wrbks/ref)
dtlb.inv_rate                0.0000 # invalidation rate (i.e., invs/ref)
rename_power           100328756.0337 # total power usage of rename unit
bpred_power            261606000.2148 # total power usage of bpred unit
window_power           1176936628.4620 # total power usage of instruction window
lsq_power              127277473.3044 # total power usage of load/store queue
regfile_power          736631956.3483 # total power usage of arch. regfile
icache_power           237783869.0072 # total power usage of icache
dcache_power           504858434.9080 # total power usage of dcache
dcache2_power          243296908.6167 # total power usage of dcache2
alu_power              1485131785.3723 # total power usage of alu
falu_power             1119742217.8901 # total power usage of falu
resultbus_power        790413472.6841 # total power usage of resultbus
clock_power            2914424957.7475 # total power usage of clock
avg_rename_power             1.2796 # avg power usage of rename unit
avg_bpred_power              3.3365 # avg power usage of bpred unit
avg_window_power            15.0105 # avg power usage of instruction window
avg_lsq_power                1.6233 # avg power usage of lsq
avg_regfile_power            9.3949 # avg power usage of arch. regfile
avg_icache_power             3.0327 # avg power usage of icache
avg_dcache_power             6.4389 # avg power usage of dcache
avg_dcache2_power            3.1030 # avg power usage of dcache2
avg_alu_power               18.9412 # avg power usage of alu
avg_falu_power              14.2810 # avg power usage of falu
avg_resultbus_power         10.0808 # avg power usage of resultbus
avg_clock_power             37.1702 # avg power usage of clock
fetch_stage_power      499389869.2221 # total power usage of fetch stage
dispatch_stage_power   100328756.0337 # total power usage of dispatch stage
issue_stage_power      4327914703.3474 # total power usage of issue stage
avg_fetch_power              6.3692 # average power of fetch unit per cycle
avg_dispatch_power           1.2796 # average power of dispatch unit per cycle
avg_issue_power             55.1977 # average power of issue unit per cycle
total_power            8578690242.6991 # total power per cycle
avg_total_power_cycle      109.4115 # average total power per cycle
avg_total_power_cycle_nofp_nod2      92.0275 # average total power per cycle
avg_total_power_insn        85.7869 # average total power per insn
avg_total_power_insn_nofp_nod2      72.1565 # average total power per insn
rename_power_cc1       30906488.2787 # total power usage of rename unit_cc1
bpred_power_cc1              0.0000 # total power usage of bpred unit_cc1
window_power_cc1       627691189.8370 # total power usage of instruction window_cc1
lsq_power_cc1          22138064.4466 # total power usage of lsq_cc1
regfile_power_cc1      285044758.9912 # total power usage of arch. regfile_cc1
icache_power_cc1       74648064.7242 # total power usage of icache_cc1
dcache_power_cc1       180127773.9328 # total power usage of dcache_cc1
dcache2_power_cc1      7229757.4577 # total power usage of dcache2_cc1
alu_power_cc1          459731847.3795 # total power usage of alu_cc1
resultbus_power_cc1    394111171.1247 # total power usage of resultbus_cc1
clock_power_cc1        1113248523.8667 # total power usage of clock_cc1
avg_rename_power_cc1         0.3942 # avg power usage of rename unit_cc1
avg_bpred_power_cc1          0.0000 # avg power usage of bpred unit_cc1
avg_window_power_cc1         8.0055 # avg power usage of instruction window_cc1
avg_lsq_power_cc1            0.2823 # avg power usage of lsq_cc1
avg_regfile_power_cc1        3.6354 # avg power usage of arch. regfile_cc1
avg_icache_power_cc1         0.9521 # avg power usage of icache_cc1
avg_dcache_power_cc1         2.2973 # avg power usage of dcache_cc1
avg_dcache2_power_cc1        0.0922 # avg power usage of dcache2_cc1
avg_alu_power_cc1            5.8634 # avg power usage of alu_cc1
avg_resultbus_power_cc1       5.0264 # avg power usage of resultbus_cc1
avg_clock_power_cc1         14.1982 # avg power usage of clock_cc1
fetch_stage_power_cc1  74648064.7242 # total power usage of fetch stage_cc1
dispatch_stage_power_cc1 30906488.2787 # total power usage of dispatch stage_cc1
issue_stage_power_cc1  1691029804.1782 # total power usage of issue stage_cc1
avg_fetch_power_cc1          0.9521 # average power of fetch unit per cycle_cc1
avg_dispatch_power_cc1       0.3942 # average power of dispatch unit per cycle_cc1
avg_issue_power_cc1         21.5672 # average power of issue unit per cycle_cc1
total_power_cycle_cc1  3194877640.0390 # total power per cycle_cc1
avg_total_power_cycle_cc1      40.7470 # average total power per cycle_cc1
avg_total_power_insn_cc1      31.9488 # average total power per insn_cc1
rename_power_cc2       15994747.2610 # total power usage of rename unit_cc2
bpred_power_cc2              0.0000 # total power usage of bpred unit_cc2
window_power_cc2       294140068.7131 # total power usage of instruction window_cc2
lsq_power_cc2          15513179.9629 # total power usage of lsq_cc2
regfile_power_cc2      68175383.2359 # total power usage of arch. regfile_cc2
icache_power_cc2       74648064.7242 # total power usage of icache_cc2
dcache_power_cc2       144999885.8940 # total power usage of dcache_cc2
dcache2_power_cc2      4119569.3677 # total power usage of dcache2_cc2
alu_power_cc2          199367005.7102 # total power usage of alu_cc2
resultbus_power_cc2    150230067.6664 # total power usage of resultbus_cc2
clock_power_cc2        516832554.2708 # total power usage of clock_cc2
avg_rename_power_cc2         0.2040 # avg power usage of rename unit_cc2
avg_bpred_power_cc2          0.0000 # avg power usage of bpred unit_cc2
avg_window_power_cc2         3.7514 # avg power usage of instruction window_cc2
avg_lsq_power_cc2            0.1979 # avg power usage of instruction lsq_cc2
avg_regfile_power_cc2        0.8695 # avg power usage of arch. regfile_cc2
avg_icache_power_cc2         0.9521 # avg power usage of icache_cc2
avg_dcache_power_cc2         1.8493 # avg power usage of dcache_cc2
avg_dcache2_power_cc2        0.0525 # avg power usage of dcache2_cc2
avg_alu_power_cc2            2.5427 # avg power usage of alu_cc2
avg_resultbus_power_cc2       1.9160 # avg power usage of resultbus_cc2
avg_clock_power_cc2          6.5916 # avg power usage of clock_cc2
fetch_stage_power_cc2  74648064.7242 # total power usage of fetch stage_cc2
dispatch_stage_power_cc2 15994747.2610 # total power usage of dispatch stage_cc2
issue_stage_power_cc2  808369777.3142 # total power usage of issue stage_cc2
avg_fetch_power_cc2          0.9521 # average power of fetch unit per cycle_cc2
avg_dispatch_power_cc2       0.2040 # average power of dispatch unit per cycle_cc2
avg_issue_power_cc2         10.3098 # average power of issue unit per cycle_cc2
total_power_cycle_cc2  1484020526.8060 # total power per cycle_cc2
avg_total_power_cycle_cc2      18.9270 # average total power per cycle_cc2
avg_total_power_insn_cc2      14.8402 # average total power per insn_cc2
rename_power_cc3       22936974.0457 # total power usage of rename unit_cc3
bpred_power_cc3        26160600.0601 # total power usage of bpred unit_cc3
window_power_cc3       342185434.6347 # total power usage of instruction window_cc3
lsq_power_cc3          25827938.7508 # total power usage of lsq_cc3
regfile_power_cc3      109917349.8677 # total power usage of arch. regfile_cc3
icache_power_cc3       90961645.2725 # total power usage of icache_cc3
dcache_power_cc3       178292481.3565 # total power usage of dcache_cc3
dcache2_power_cc3      27730297.9973 # total power usage of dcache2_cc3
alu_power_cc3          301906999.0554 # total power usage of alu_cc3
resultbus_power_cc3    187238735.1899 # total power usage of resultbus_cc3
clock_power_cc3        690366668.2793 # total power usage of clock_cc3
avg_rename_power_cc3         0.2925 # avg power usage of rename unit_cc3
avg_bpred_power_cc3          0.3336 # avg power usage of bpred unit_cc3
avg_window_power_cc3         4.3642 # avg power usage of instruction window_cc3
avg_lsq_power_cc3            0.3294 # avg power usage of instruction lsq_cc3
avg_regfile_power_cc3        1.4019 # avg power usage of arch. regfile_cc3
avg_icache_power_cc3         1.1601 # avg power usage of icache_cc3
avg_dcache_power_cc3         2.2739 # avg power usage of dcache_cc3
avg_dcache2_power_cc3        0.3537 # avg power usage of dcache2_cc3
avg_alu_power_cc3            3.8505 # avg power usage of alu_cc3
avg_resultbus_power_cc3       2.3880 # avg power usage of resultbus_cc3
avg_clock_power_cc3          8.8048 # avg power usage of clock_cc3
fetch_stage_power_cc3  117122245.3326 # total power usage of fetch stage_cc3
dispatch_stage_power_cc3 22936974.0457 # total power usage of dispatch stage_cc3
issue_stage_power_cc3  1063181886.9846 # total power usage of issue stage_cc3
avg_fetch_power_cc3          1.4938 # average power of fetch unit per cycle_cc3
avg_dispatch_power_cc3       0.2925 # average power of dispatch unit per cycle_cc3
avg_issue_power_cc3         13.5597 # average power of issue unit per cycle_cc3
total_power_cycle_cc3  2003525124.5099 # total power per cycle_cc3
avg_total_power_cycle_cc3      25.5527 # average total power per cycle_cc3
avg_total_power_insn_cc3      20.0353 # average total power per insn_cc3
total_rename_access       100000002 # total number accesses of rename unit
total_bpred_access                0 # total number accesses of bpred unit
total_window_access       411389217 # total number accesses of instruction window
total_lsq_access           46321355 # total number accesses of load/store queue
total_regfile_access      198112504 # total number accesses of arch. regfile
total_icache_access       109908504 # total number accesses of icache
total_dcache_access        45038727 # total number accesses of dcache
total_dcache2_access        2655237 # total number accesses of dcache2
total_alu_access           99729995 # total number accesses of alu
total_resultbus_access    127168429 # total number accesses of resultbus
avg_rename_access            1.2754 # avg number accesses of rename unit
avg_bpred_access             0.0000 # avg number accesses of bpred unit
avg_window_access            5.2468 # avg number accesses of instruction window
avg_lsq_access               0.5908 # avg number accesses of lsq
avg_regfile_access           2.5267 # avg number accesses of arch. regfile
avg_icache_access            1.4018 # avg number accesses of icache
avg_dcache_access            0.5744 # avg number accesses of dcache
avg_dcache2_access           0.0339 # avg number accesses of dcache2
avg_alu_access               1.2719 # avg number accesses of alu
avg_resultbus_access         1.6219 # avg number accesses of resultbus
max_rename_access                 8 # max number accesses of rename unit
max_bpred_access                  0 # max number accesses of bpred unit
max_window_access                25 # max number accesses of instruction window
max_lsq_access                    6 # max number accesses of load/store queue
max_regfile_access               24 # max number accesses of arch. regfile
max_icache_access                 8 # max number accesses of icache
max_dcache_access                 4 # max number accesses of dcache
max_dcache2_access                5 # max number accesses of dcache2
max_alu_access                    8 # max number accesses of alu
max_resultbus_access             10 # max number accesses of resultbus
max_cycle_power_cc1         83.9949 # maximum cycle power usage of cc1
max_cycle_power_cc2         70.1140 # maximum cycle power usage of cc2
max_cycle_power_cc3         72.7646 # maximum cycle power usage of cc3
sim_invalid_addrs                 0 # total non-speculative bogus addresses seen (debug var)
ld_text_base           0x0120000000 # program text (code) segment base
ld_text_size                1867776 # program text (code) size in bytes
ld_data_base           0x0140000000 # program initialized data segment base
ld_data_size                 373328 # program init'ed `.data' and uninit'ed `.bss' size in bytes
ld_stack_base          0x011ff9b000 # program stack segment base (highest address in stack)
ld_stack_size                 16384 # program initial stack size
ld_prog_entry          0x0120069a70 # program entry point (initial PC)
ld_environ_base        0x011ff96440 # program environment base address address
ld_target_big_endian              0 # target executable endian-ness, non-zero if big endian
mem.page_count                13429 # total number of pages allocated
mem.page_mem                107432k # total size of memory pages allocated
mem.ptab_misses              283628 # total first level page table misses
mem.ptab_accesses        1154690160 # total page table accesses
mem.ptab_miss_rate           0.0002 # first level page table miss rate

