sim-outorder: SimpleScalar/Alpha Tool Set version 3.0 of August, 2003.
Copyright (c) 1994-2003 by Todd M. Austin, Ph.D. and SimpleScalar, LLC.
All Rights Reserved. This version of SimpleScalar is licensed for academic
non-commercial use.  No portion of this work may be used by any commercial
entity, or for any commercial purpose, without the prior written permission
of SimpleScalar, LLC (info@simplescalar.com).


Processor Parameters:
Issue Width: 8
Window Size: 64
Number of Virtual Registers: 32
Number of Physical Registers: 64
Datapath Width: 64
Total Power Consumption: 111.411
Branch Predictor Power Consumption: 3.33649  (3.05%)
 branch target buffer power (W): 2.49493
 local predict power (W): 0.574771
 global predict power (W): 0.0996078
 chooser power (W): 0.0702439
 RAS power (W): 0.0969383
Rename Logic Power Consumption: 1.27958  (1.17%)
 Instruction Decode Power (W): 0.0319831
 RAT decode_power (W): 0.227029
 RAT wordline_power (W): 0.0913687
 RAT bitline_power (W): 0.878297
 DCL Comparators (W): 0.0509018
Instruction Window Power Consumption: 15.0105  (13.7%)
 tagdrive (W): 1.06159
 tagmatch (W): 0.415138
 Selection Logic (W): 0.112742
 decode_power (W): 0.488291
 wordline_power (W): 0.288569
 bitline_power (W): 12.6442
Load/Store Queue Power Consumption: 1.62328  (1.48%)
 tagdrive (W): 0.457232
 tagmatch (W): 0.100875
 decode_power (W): 0.00799577
 wordline_power (W): 0.0150119
 bitline_power (W): 1.04217
Arch. Register File Power Consumption: 9.39491  (8.59%)
 decode_power (W): 0.227029
 wordline_power (W): 0.288569
 bitline_power (W): 8.87931
Result Bus Power Consumption: 10.0808  (9.21%)
Total Clock Power: 37.1702  (34%)
Int ALU Power: 4.66013  (4.26%)
FP ALU Power: 14.281  (13.1%)
Instruction Cache Power Consumption: 2.76773  (2.53%)
 decode_power (W): 0.151353
 wordline_power (W): 0.180479
 bitline_power (W): 1.42251
 senseamp_power (W): 0.768
 tagarray_power (W): 0.245382
Itlb_power (W): 0.264936 (0.242%)
Data Cache Power Consumption: 5.53546  (5.06%)
 decode_power (W): 0.302705
 wordline_power (W): 0.360958
 bitline_power (W): 2.84503
 senseamp_power (W): 1.536
 tagarray_power (W): 0.490764
Dtlb_power (W): 0.903441 (0.826%)
Level 2 Cache Power Consumption: 3.10298 (2.84%)
 decode_power (W): 0.19487
 wordline_power (W): 0.0430878
 bitline_power (W): 1.77274
 senseamp_power (W): 0.192
 tagarray_power (W): 0.900275
sim: loading EIO file: ../benchmarks/252.eon.kajiya-ref.eio.gz
sim: command line: ./sim-outorder -config ../configs/current.config ../benchmarks/252.eon.kajiya-ref.eio.gz 

sim: simulation started @ Tue Nov 24 11:09:13 2015, options follow:

sim-outorder: This simulator implements a very detailed out-of-order issue
superscalar processor with a two-level memory system and speculative
execution support.  This simulator is a performance simulator, tracking the
latency of all pipeline operations.

# -config                     # load configuration from a file
# -dumpconfig                 # dump configuration to a file
# -h                    false # print help message    
# -v                    false # verbose operation     
# -d                    false # enable debug message  
# -i                    false # start in Dlite debugger
-seed                       1 # random number generator seed (0 for timer seed)
# -q                    false # initialize and terminate immediately
# -chkpt               <null> # restore EIO trace execution from <fname>
# -redir:sim     ../results/18_17_width/252.eon.kajiya-ref.eio.gz.out # redirect simulator output to file (non-interactive only)
# -redir:prog       /dev/null # redirect simulated program output to file
-nice                       0 # simulator scheduling priority
-freq            600000000.0000 # frequency             
-max:inst           100000000 # maximum number of inst's to execute
-fastfwd                    0 # number of insts skipped before timing starts
# -ptrace              <null> # generate pipetrace, i.e., <fname|stdout|stderr> <range>
-fetch:ifqsize              8 # instruction fetch queue size (in insts)
-fetch:mplat               15 # extra branch mis-prediction latency
-fetch:speed                1 # speed of front-end of machine relative to execution core
-bpred                perfect # branch predictor type {nottaken|taken|perfect|bimod|2lev|comb}
-bpred:bimod     2048 # bimodal predictor config (<table size>)
-bpred:2lev      1 16384 4 0 # 2-level predictor config (<l1size> <l2size> <hist_size> <xor>)
-bpred:comb      1024 # combining predictor config (<meta_table_size>)
-bpred:ras                  8 # return address stack size (0 for no return stack)
-bpred:btb       512 4 # BTB config (<num_sets> <associativity>)
# -bpred:spec_update       <null> # speculative predictors update in {ID|WB} (default non-spec)
-decode:width               8 # instruction decode B/W (insts/cycle)
-issue:width                8 # instruction issue B/W (insts/cycle)
-issue:inorder          false # run pipeline with in-order issue
-issue:wrongpath         true # issue instructions down wrong execution paths
-commit:width               8 # instruction commit B/W (insts/cycle)
-ruu:size                  64 # register update unit (RUU) size
-lsq:size                   8 # load/store queue (LSQ) size
-cache:dl1       dl1:32:64:8:f # l1 data cache config, i.e., {<config>|none}
-cache:dl1lat               1 # l1 data cache hit latency (in cycles)
-cache:dl2       dl2:256:64:8:f # l2 data cache config, i.e., {<config>|none}
-cache:dl2lat               2 # l2 data cache hit latency (in cycles)
-cache:il1       il1:32:64:8:f # l1 inst cache config, i.e., {<config>|dl1|dl2|none}
-cache:il1lat               1 # l1 instruction cache hit latency (in cycles)
-cache:il2                dl2 # l2 instruction cache config, i.e., {<config>|dl2|none}
-cache:il2lat               2 # l2 instruction cache hit latency (in cycles)
-cache:flush            false # flush caches on system calls
-cache:icompress        false # convert 64-bit inst addresses to 32-bit inst equivalents
-mem:lat         103 1 # memory access latency (<first_chunk> <inter_chunk>)
-mem:width                  8 # memory access bus width (in bytes)
-tlb:itlb        itlb:16:4096:4:l # instruction TLB config, i.e., {<config>|none}
-tlb:dtlb        dtlb:32:4096:4:l # data TLB config, i.e., {<config>|none}
-tlb:lat                   30 # inst/data TLB miss latency (in cycles)
-res:ialu                   4 # total number of integer ALU's available
-res:imult                  1 # total number of integer multiplier/dividers available
-res:memport                2 # total number of memory system ports available (to CPU)
-res:fpalu                  4 # total number of floating point ALU's available
-res:fpmult                 1 # total number of floating point multiplier/dividers available
# -pcstat              <null> # profile stat(s) against text addr's (mult uses ok)
-bugcompat              false # operate in backward-compatible bugs mode (for testing only)

  Pipetrace range arguments are formatted as follows:

    {{@|#}<start>}:{{@|#|+}<end>}

  Both ends of the range are optional, if neither are specified, the entire
  execution is traced.  Ranges that start with a `@' designate an address
  range to be traced, those that start with an `#' designate a cycle count
  range.  All other range values represent an instruction count range.  The
  second argument, if specified with a `+', indicates a value relative
  to the first argument, e.g., 1000:+100 == 1000:1100.  Program symbols may
  be used in all contexts.

    Examples:   -ptrace FOO.trc #0:#1000
                -ptrace BAR.trc @2000:
                -ptrace BLAH.trc :1500
                -ptrace UXXE.trc :
                -ptrace FOOBAR.trc @main:+278

  Branch predictor configuration examples for 2-level predictor:
    Configurations:   N, M, W, X
      N   # entries in first level (# of shift register(s))
      W   width of shift register(s)
      M   # entries in 2nd level (# of counters, or other FSM)
      X   (yes-1/no-0) xor history and address for 2nd level index
    Sample predictors:
      GAg     : 1, W, 2^W, 0
      GAp     : 1, W, M (M > 2^W), 0
      PAg     : N, W, 2^W, 0
      PAp     : N, W, M (M == 2^(N+W)), 0
      gshare  : 1, W, 2^W, 1
  Predictor `comb' combines a bimodal and a 2-level predictor.

  The cache config parameter <config> has the following format:

    <name>:<nsets>:<bsize>:<assoc>:<repl>

    <name>   - name of the cache being defined
    <nsets>  - number of sets in the cache
    <bsize>  - block size of the cache
    <assoc>  - associativity of the cache
    <repl>   - block replacement strategy, 'l'-LRU, 'f'-FIFO, 'r'-random

    Examples:   -cache:dl1 dl1:4096:32:1:l
                -dtlb dtlb:128:4096:32:r

  Cache levels can be unified by pointing a level of the instruction cache
  hierarchy at the data cache hiearchy using the "dl1" and "dl2" cache
  configuration arguments.  Most sensible combinations are supported, e.g.,

    A unified l2 cache (il2 is pointed at dl2):
      -cache:il1 il1:128:64:1:l -cache:il2 dl2
      -cache:dl1 dl1:256:32:1:l -cache:dl2 ul2:1024:64:2:l

    Or, a fully unified cache hierarchy (il1 pointed at dl1):
      -cache:il1 dl1
      -cache:dl1 ul1:256:32:1:l -cache:dl2 ul2:1024:64:2:l



sim: ** starting performance simulation **

sim: ** simulation statistics **
sim_num_insn              100000000 # total number of instructions committed
sim_num_refs               49286917 # total number of loads and stores committed
sim_num_loads              29859238 # total number of loads committed
sim_num_stores         19427679.0000 # total number of stores committed
sim_num_branches           11155385 # total number of branches committed
sim_elapsed_time                111 # total simulation time in seconds
sim_inst_rate           900900.9009 # simulation speed (in insts/sec)
sim_total_insn            100000000 # total number of instructions executed
sim_total_refs             49286917 # total number of loads and stores executed
sim_total_loads            29859238 # total number of loads executed
sim_total_stores       19427679.0000 # total number of stores executed
sim_total_branches         11155385 # total number of branches executed
sim_cycle                  46066291 # total simulation time in cycles
sim_IPC                      2.1708 # instructions per cycle
sim_CPI                      0.4607 # cycles per instruction
sim_exec_BW                  2.1708 # total instructions (mis-spec + committed) per cycle
sim_IPB                      8.9643 # instruction per branch
IFQ_count                 353841893 # cumulative IFQ occupancy
IFQ_fcount                 43719573 # cumulative IFQ full count
ifq_occupancy                7.6811 # avg IFQ occupancy (insn's)
ifq_rate                     2.1708 # avg IFQ dispatch rate (insn/cycle)
ifq_latency                  3.5384 # avg IFQ occupant latency (cycle's)
ifq_full                     0.9491 # fraction of time (cycle's) IFQ was full
RUU_count                 759344177 # cumulative RUU occupancy
RUU_fcount                    26989 # cumulative RUU full count
ruu_occupancy               16.4837 # avg RUU occupancy (insn's)
ruu_rate                     2.1708 # avg RUU dispatch rate (insn/cycle)
ruu_latency                  7.5934 # avg RUU occupant latency (cycle's)
ruu_full                     0.0006 # fraction of time (cycle's) RUU was full
LSQ_count                 334912667 # cumulative LSQ occupancy
LSQ_fcount                 34016500 # cumulative LSQ full count
lsq_occupancy                7.2702 # avg LSQ occupancy (insn's)
lsq_rate                     2.1708 # avg LSQ dispatch rate (insn/cycle)
lsq_latency                  3.3491 # avg LSQ occupant latency (cycle's)
lsq_full                     0.7384 # fraction of time (cycle's) LSQ was full
sim_slip                 1243543662 # total number of slip cycles
avg_sim_slip                12.4354 # the average slip between issue and retirement
il1.accesses              135598170 # total number of accesses
il1.hits                  134628461 # total number of hits
il1.misses                   969709 # total number of misses
il1.replacements             969453 # total number of replacements
il1.writebacks                    0 # total number of writebacks
il1.invalidations                 0 # total number of invalidations
il1.miss_rate                0.0072 # miss rate (i.e., misses/ref)
il1.repl_rate                0.0071 # replacement rate (i.e., repls/ref)
il1.wb_rate                  0.0000 # writeback rate (i.e., wrbks/ref)
il1.inv_rate                 0.0000 # invalidation rate (i.e., invs/ref)
dl1.accesses               48545093 # total number of accesses
dl1.hits                   47999682 # total number of hits
dl1.misses                   545411 # total number of misses
dl1.replacements             545155 # total number of replacements
dl1.writebacks               182480 # total number of writebacks
dl1.invalidations                 0 # total number of invalidations
dl1.miss_rate                0.0112 # miss rate (i.e., misses/ref)
dl1.repl_rate                0.0112 # replacement rate (i.e., repls/ref)
dl1.wb_rate                  0.0038 # writeback rate (i.e., wrbks/ref)
dl1.inv_rate                 0.0000 # invalidation rate (i.e., invs/ref)
dl2.accesses                1697600 # total number of accesses
dl2.hits                    1689474 # total number of hits
dl2.misses                     8126 # total number of misses
dl2.replacements               6078 # total number of replacements
dl2.writebacks                 2526 # total number of writebacks
dl2.invalidations                 0 # total number of invalidations
dl2.miss_rate                0.0048 # miss rate (i.e., misses/ref)
dl2.repl_rate                0.0036 # replacement rate (i.e., repls/ref)
dl2.wb_rate                  0.0015 # writeback rate (i.e., wrbks/ref)
dl2.inv_rate                 0.0000 # invalidation rate (i.e., invs/ref)
itlb.accesses             135598170 # total number of accesses
itlb.hits                 135597911 # total number of hits
itlb.misses                     259 # total number of misses
itlb.replacements               195 # total number of replacements
itlb.writebacks                   0 # total number of writebacks
itlb.invalidations                0 # total number of invalidations
itlb.miss_rate               0.0000 # miss rate (i.e., misses/ref)
itlb.repl_rate               0.0000 # replacement rate (i.e., repls/ref)
itlb.wb_rate                 0.0000 # writeback rate (i.e., wrbks/ref)
itlb.inv_rate                0.0000 # invalidation rate (i.e., invs/ref)
dtlb.accesses              49286914 # total number of accesses
dtlb.hits                  49286814 # total number of hits
dtlb.misses                     100 # total number of misses
dtlb.replacements                 1 # total number of replacements
dtlb.writebacks                   0 # total number of writebacks
dtlb.invalidations                0 # total number of invalidations
dtlb.miss_rate               0.0000 # miss rate (i.e., misses/ref)
dtlb.repl_rate               0.0000 # replacement rate (i.e., repls/ref)
dtlb.wb_rate                 0.0000 # writeback rate (i.e., wrbks/ref)
dtlb.inv_rate                0.0000 # invalidation rate (i.e., invs/ref)
rename_power           58945493.4221 # total power usage of rename unit
bpred_power            153699650.8921 # total power usage of bpred unit
window_power           691477828.3025 # total power usage of instruction window
lsq_power              74778495.8888 # total power usage of load/store queue
regfile_power          432788522.6285 # total power usage of arch. regfile
icache_power           139703591.2303 # total power usage of icache
dcache_power           296616151.7327 # total power usage of dcache
dcache2_power          142942630.8545 # total power usage of dcache2
alu_power              872549698.9709 # total power usage of alu
falu_power             657874772.7729 # total power usage of falu
resultbus_power        464386422.6137 # total power usage of resultbus
clock_power            1712292904.1335 # total power usage of clock
avg_rename_power             1.2796 # avg power usage of rename unit
avg_bpred_power              3.3365 # avg power usage of bpred unit
avg_window_power            15.0105 # avg power usage of instruction window
avg_lsq_power                1.6233 # avg power usage of lsq
avg_regfile_power            9.3949 # avg power usage of arch. regfile
avg_icache_power             3.0327 # avg power usage of icache
avg_dcache_power             6.4389 # avg power usage of dcache
avg_dcache2_power            3.1030 # avg power usage of dcache2
avg_alu_power               18.9412 # avg power usage of alu
avg_falu_power              14.2810 # avg power usage of falu
avg_resultbus_power         10.0808 # avg power usage of resultbus
avg_clock_power             37.1702 # avg power usage of clock
fetch_stage_power      293403242.1224 # total power usage of fetch stage
dispatch_stage_power   58945493.4221 # total power usage of dispatch stage
issue_stage_power      2542751228.3630 # total power usage of issue stage
avg_fetch_power              6.3692 # average power of fetch unit per cycle
avg_dispatch_power           1.2796 # average power of dispatch unit per cycle
avg_issue_power             55.1977 # average power of issue unit per cycle
total_power            5040181390.6695 # total power per cycle
avg_total_power_cycle      109.4115 # average total power per cycle
avg_total_power_cycle_nofp_nod2      92.0275 # average total power per cycle
avg_total_power_insn        50.4018 # average total power per insn
avg_total_power_insn_nofp_nod2      42.3936 # average total power per insn
rename_power_cc1       34523590.2573 # total power usage of rename unit_cc1
bpred_power_cc1              0.0000 # total power usage of bpred unit_cc1
window_power_cc1       567216088.0093 # total power usage of instruction window_cc1
lsq_power_cc1          23120889.4894 # total power usage of lsq_cc1
regfile_power_cc1      267082979.8508 # total power usage of arch. regfile_cc1
icache_power_cc1       82887604.0874 # total power usage of icache_cc1
dcache_power_cc1       190783499.8940 # total power usage of dcache_cc1
dcache2_power_cc1      4619296.0194 # total power usage of dcache2_cc1
alu_power_cc1          296389415.3006 # total power usage of alu_cc1
resultbus_power_cc1    362217666.2498 # total power usage of resultbus_cc1
clock_power_cc1        947116862.7837 # total power usage of clock_cc1
avg_rename_power_cc1         0.7494 # avg power usage of rename unit_cc1
avg_bpred_power_cc1          0.0000 # avg power usage of bpred unit_cc1
avg_window_power_cc1        12.3130 # avg power usage of instruction window_cc1
avg_lsq_power_cc1            0.5019 # avg power usage of lsq_cc1
avg_regfile_power_cc1        5.7978 # avg power usage of arch. regfile_cc1
avg_icache_power_cc1         1.7993 # avg power usage of icache_cc1
avg_dcache_power_cc1         4.1415 # avg power usage of dcache_cc1
avg_dcache2_power_cc1        0.1003 # avg power usage of dcache2_cc1
avg_alu_power_cc1            6.4340 # avg power usage of alu_cc1
avg_resultbus_power_cc1       7.8630 # avg power usage of resultbus_cc1
avg_clock_power_cc1         20.5599 # avg power usage of clock_cc1
fetch_stage_power_cc1  82887604.0874 # total power usage of fetch stage_cc1
dispatch_stage_power_cc1 34523590.2573 # total power usage of dispatch stage_cc1
issue_stage_power_cc1  1444346854.9624 # total power usage of issue stage_cc1
avg_fetch_power_cc1          1.7993 # average power of fetch unit per cycle_cc1
avg_dispatch_power_cc1       0.7494 # average power of dispatch unit per cycle_cc1
avg_issue_power_cc1         31.3537 # average power of issue unit per cycle_cc1
total_power_cycle_cc1  2775957891.9416 # total power per cycle_cc1
avg_total_power_cycle_cc1      60.2601 # average total power per cycle_cc1
avg_total_power_insn_cc1      27.7596 # average total power per insn_cc1
rename_power_cc2       15994746.9421 # total power usage of rename unit_cc2
bpred_power_cc2              0.0000 # total power usage of bpred unit_cc2
window_power_cc2       281609663.0418 # total power usage of instruction window_cc2
lsq_power_cc2          17007544.3634 # total power usage of lsq_cc2
regfile_power_cc2      54286053.7642 # total power usage of arch. regfile_cc2
icache_power_cc2       82887604.0874 # total power usage of icache_cc2
dcache_power_cc2       156288452.5199 # total power usage of dcache_cc2
dcache2_power_cc2      2633806.6841 # total power usage of dcache2_cc2
alu_power_cc2          148357947.4302 # total power usage of alu_cc2
resultbus_power_cc2    140230447.9603 # total power usage of resultbus_cc2
clock_power_cc2        465317490.0206 # total power usage of clock_cc2
avg_rename_power_cc2         0.3472 # avg power usage of rename unit_cc2
avg_bpred_power_cc2          0.0000 # avg power usage of bpred unit_cc2
avg_window_power_cc2         6.1131 # avg power usage of instruction window_cc2
avg_lsq_power_cc2            0.3692 # avg power usage of instruction lsq_cc2
avg_regfile_power_cc2        1.1784 # avg power usage of arch. regfile_cc2
avg_icache_power_cc2         1.7993 # avg power usage of icache_cc2
avg_dcache_power_cc2         3.3927 # avg power usage of dcache_cc2
avg_dcache2_power_cc2        0.0572 # avg power usage of dcache2_cc2
avg_alu_power_cc2            3.2205 # avg power usage of alu_cc2
avg_resultbus_power_cc2       3.0441 # avg power usage of resultbus_cc2
avg_clock_power_cc2         10.1010 # avg power usage of clock_cc2
fetch_stage_power_cc2  82887604.0874 # total power usage of fetch stage_cc2
dispatch_stage_power_cc2 15994746.9421 # total power usage of dispatch stage_cc2
issue_stage_power_cc2  746127861.9996 # total power usage of issue stage_cc2
avg_fetch_power_cc2          1.7993 # average power of fetch unit per cycle_cc2
avg_dispatch_power_cc2       0.3472 # average power of dispatch unit per cycle_cc2
avg_issue_power_cc2         16.1968 # average power of issue unit per cycle_cc2
total_power_cycle_cc2  1364613756.8139 # total power per cycle_cc2
avg_total_power_cycle_cc2      29.6228 # average total power per cycle_cc2
avg_total_power_insn_cc2      13.6461 # average total power per insn_cc2
rename_power_cc3       18436937.2554 # total power usage of rename unit_cc3
bpred_power_cc3        15369965.0875 # total power usage of bpred unit_cc3
window_power_cc3       286599611.4468 # total power usage of instruction window_cc3
lsq_power_cc3          22011006.0700 # total power usage of lsq_cc3
regfile_power_cc3      66790258.8687 # total power usage of arch. regfile_cc3
icache_power_cc3       88569202.8279 # total power usage of icache_cc3
dcache_power_cc3       168135282.5485 # total power usage of dcache_cc3
dcache2_power_cc3      16468236.5522 # total power usage of dcache2_cc3
alu_power_cc3          205973975.5478 # total power usage of alu_cc3
resultbus_power_cc3    148032558.3215 # total power usage of resultbus_cc3
clock_power_cc3        535226136.7792 # total power usage of clock_cc3
avg_rename_power_cc3         0.4002 # avg power usage of rename unit_cc3
avg_bpred_power_cc3          0.3336 # avg power usage of bpred unit_cc3
avg_window_power_cc3         6.2215 # avg power usage of instruction window_cc3
avg_lsq_power_cc3            0.4778 # avg power usage of instruction lsq_cc3
avg_regfile_power_cc3        1.4499 # avg power usage of arch. regfile_cc3
avg_icache_power_cc3         1.9226 # avg power usage of icache_cc3
avg_dcache_power_cc3         3.6499 # avg power usage of dcache_cc3
avg_dcache2_power_cc3        0.3575 # avg power usage of dcache2_cc3
avg_alu_power_cc3            4.4713 # avg power usage of alu_cc3
avg_resultbus_power_cc3       3.2135 # avg power usage of resultbus_cc3
avg_clock_power_cc3         11.6186 # avg power usage of clock_cc3
fetch_stage_power_cc3  103939167.9154 # total power usage of fetch stage_cc3
dispatch_stage_power_cc3 18436937.2554 # total power usage of dispatch stage_cc3
issue_stage_power_cc3  847220670.4868 # total power usage of issue stage_cc3
avg_fetch_power_cc3          2.2563 # average power of fetch unit per cycle_cc3
avg_dispatch_power_cc3       0.4002 # average power of dispatch unit per cycle_cc3
avg_issue_power_cc3         18.3913 # average power of issue unit per cycle_cc3
total_power_cycle_cc3  1571613171.3055 # total power per cycle_cc3
avg_total_power_cycle_cc3      34.1163 # average total power per cycle_cc3
avg_total_power_insn_cc3      15.7161 # average total power per insn_cc3
total_rename_access       100000000 # total number accesses of rename unit
total_bpred_access                0 # total number accesses of bpred unit
total_window_access       403392400 # total number accesses of instruction window
total_lsq_access           50028735 # total number accesses of load/store queue
total_regfile_access      162048178 # total number accesses of arch. regfile
total_icache_access       135598170 # total number accesses of icache
total_dcache_access        48545093 # total number accesses of dcache
total_dcache2_access        1697600 # total number accesses of dcache2
total_alu_access           99912850 # total number accesses of alu
total_resultbus_access    118703839 # total number accesses of resultbus
avg_rename_access            2.1708 # avg number accesses of rename unit
avg_bpred_access             0.0000 # avg number accesses of bpred unit
avg_window_access            8.7568 # avg number accesses of instruction window
avg_lsq_access               1.0860 # avg number accesses of lsq
avg_regfile_access           3.5177 # avg number accesses of arch. regfile
avg_icache_access            2.9435 # avg number accesses of icache
avg_dcache_access            1.0538 # avg number accesses of dcache
avg_dcache2_access           0.0369 # avg number accesses of dcache2
avg_alu_access               2.1689 # avg number accesses of alu
avg_resultbus_access         2.5768 # avg number accesses of resultbus
max_rename_access                 8 # max number accesses of rename unit
max_bpred_access                  0 # max number accesses of bpred unit
max_window_access                30 # max number accesses of instruction window
max_lsq_access                    6 # max number accesses of load/store queue
max_regfile_access               24 # max number accesses of arch. regfile
max_icache_access                 8 # max number accesses of icache
max_dcache_access                 4 # max number accesses of dcache
max_dcache2_access                6 # max number accesses of dcache2
max_alu_access                    8 # max number accesses of alu
max_resultbus_access              9 # max number accesses of resultbus
max_cycle_power_cc1         90.0935 # maximum cycle power usage of cc1
max_cycle_power_cc2         72.0594 # maximum cycle power usage of cc2
max_cycle_power_cc3         74.4229 # maximum cycle power usage of cc3
sim_invalid_addrs                 0 # total non-speculative bogus addresses seen (debug var)
ld_text_base           0x0120000000 # program text (code) segment base
ld_text_size                 794624 # program text (code) size in bytes
ld_data_base           0x0140000000 # program initialized data segment base
ld_data_size                 216592 # program init'ed `.data' and uninit'ed `.bss' size in bytes
ld_stack_base          0x011ff9b000 # program stack segment base (highest address in stack)
ld_stack_size                 16384 # program initial stack size
ld_prog_entry          0x012002d410 # program entry point (initial PC)
ld_environ_base        0x011ff97000 # program environment base address address
ld_target_big_endian              0 # target executable endian-ness, non-zero if big endian
mem.page_count                  140 # total number of pages allocated
mem.page_mem                  1120k # total size of memory pages allocated
mem.ptab_misses              170633 # total first level page table misses
mem.ptab_accesses         947097436 # total page table accesses
mem.ptab_miss_rate           0.0002 # first level page table miss rate

