sim-outorder: SimpleScalar/Alpha Tool Set version 3.0 of August, 2003.
Copyright (c) 1994-2003 by Todd M. Austin, Ph.D. and SimpleScalar, LLC.
All Rights Reserved. This version of SimpleScalar is licensed for academic
non-commercial use.  No portion of this work may be used by any commercial
entity, or for any commercial purpose, without the prior written permission
of SimpleScalar, LLC (info@simplescalar.com).


Processor Parameters:
Issue Width: 16
Window Size: 64
Number of Virtual Registers: 32
Number of Physical Registers: 64
Datapath Width: 64
Total Power Consumption: 193.743
Branch Predictor Power Consumption: 3.33649  (1.74%)
 branch target buffer power (W): 2.49493
 local predict power (W): 0.574771
 global predict power (W): 0.0996078
 chooser power (W): 0.0702439
 RAS power (W): 0.0969383
Rename Logic Power Consumption: 3.27072  (1.71%)
 Instruction Decode Power (W): 0.0639661
 RAT decode_power (W): 0.454058
 RAT wordline_power (W): 0.227603
 RAT bitline_power (W): 2.30694
 DCL Comparators (W): 0.218151
Instruction Window Power Consumption: 43.216  (22.5%)
 tagdrive (W): 2.9395
 tagmatch (W): 0.989695
 Selection Logic (W): 0.225484
 decode_power (W): 0.976583
 wordline_power (W): 1.0557
 bitline_power (W): 37.0291
Load/Store Queue Power Consumption: 1.62328  (0.847%)
 tagdrive (W): 0.457232
 tagmatch (W): 0.100875
 decode_power (W): 0.00799577
 wordline_power (W): 0.0150119
 bitline_power (W): 1.04217
Arch. Register File Power Consumption: 25.1387  (13.1%)
 decode_power (W): 0.454058
 wordline_power (W): 1.0557
 bitline_power (W): 23.629
Result Bus Power Consumption: 31.3281  (16.3%)
Total Clock Power: 52.3137  (27.3%)
Int ALU Power: 4.66013  (2.43%)
FP ALU Power: 14.281  (7.45%)
Instruction Cache Power Consumption: 2.76773  (1.44%)
 decode_power (W): 0.151353
 wordline_power (W): 0.180479
 bitline_power (W): 1.42251
 senseamp_power (W): 0.768
 tagarray_power (W): 0.245382
Itlb_power (W): 0.264936 (0.138%)
Data Cache Power Consumption: 5.53546  (2.89%)
 decode_power (W): 0.302705
 wordline_power (W): 0.360958
 bitline_power (W): 2.84503
 senseamp_power (W): 1.536
 tagarray_power (W): 0.490764
Dtlb_power (W): 0.903441 (0.471%)
Level 2 Cache Power Consumption: 3.10298 (1.62%)
 decode_power (W): 0.19487
 wordline_power (W): 0.0430878
 bitline_power (W): 1.77274
 senseamp_power (W): 0.192
 tagarray_power (W): 0.900275
sim: loading EIO file: ../benchmarks/164.gzip.graphic-ref.eio.gz
sim: command line: ./sim-outorder -config ../configs/current.config ../benchmarks/164.gzip.graphic-ref.eio.gz 

sim: simulation started @ Tue Nov 24 11:16:40 2015, options follow:

sim-outorder: This simulator implements a very detailed out-of-order issue
superscalar processor with a two-level memory system and speculative
execution support.  This simulator is a performance simulator, tracking the
latency of all pipeline operations.

# -config                     # load configuration from a file
# -dumpconfig                 # dump configuration to a file
# -h                    false # print help message    
# -v                    false # verbose operation     
# -d                    false # enable debug message  
# -i                    false # start in Dlite debugger
-seed                       1 # random number generator seed (0 for timer seed)
# -q                    false # initialize and terminate immediately
# -chkpt               <null> # restore EIO trace execution from <fname>
# -redir:sim     ../results/19_17_width/164.gzip.graphic-ref.eio.gz.out # redirect simulator output to file (non-interactive only)
# -redir:prog       /dev/null # redirect simulated program output to file
-nice                       0 # simulator scheduling priority
-freq            600000000.0000 # frequency             
-max:inst           100000000 # maximum number of inst's to execute
-fastfwd                    0 # number of insts skipped before timing starts
# -ptrace              <null> # generate pipetrace, i.e., <fname|stdout|stderr> <range>
-fetch:ifqsize             16 # instruction fetch queue size (in insts)
-fetch:mplat               15 # extra branch mis-prediction latency
-fetch:speed                1 # speed of front-end of machine relative to execution core
-bpred                perfect # branch predictor type {nottaken|taken|perfect|bimod|2lev|comb}
-bpred:bimod     2048 # bimodal predictor config (<table size>)
-bpred:2lev      1 16384 4 0 # 2-level predictor config (<l1size> <l2size> <hist_size> <xor>)
-bpred:comb      1024 # combining predictor config (<meta_table_size>)
-bpred:ras                  8 # return address stack size (0 for no return stack)
-bpred:btb       512 4 # BTB config (<num_sets> <associativity>)
# -bpred:spec_update       <null> # speculative predictors update in {ID|WB} (default non-spec)
-decode:width              16 # instruction decode B/W (insts/cycle)
-issue:width               16 # instruction issue B/W (insts/cycle)
-issue:inorder          false # run pipeline with in-order issue
-issue:wrongpath         true # issue instructions down wrong execution paths
-commit:width              16 # instruction commit B/W (insts/cycle)
-ruu:size                  64 # register update unit (RUU) size
-lsq:size                   8 # load/store queue (LSQ) size
-cache:dl1       dl1:32:64:8:f # l1 data cache config, i.e., {<config>|none}
-cache:dl1lat               1 # l1 data cache hit latency (in cycles)
-cache:dl2       dl2:256:64:8:f # l2 data cache config, i.e., {<config>|none}
-cache:dl2lat               2 # l2 data cache hit latency (in cycles)
-cache:il1       il1:32:64:8:f # l1 inst cache config, i.e., {<config>|dl1|dl2|none}
-cache:il1lat               1 # l1 instruction cache hit latency (in cycles)
-cache:il2                dl2 # l2 instruction cache config, i.e., {<config>|dl2|none}
-cache:il2lat               2 # l2 instruction cache hit latency (in cycles)
-cache:flush            false # flush caches on system calls
-cache:icompress        false # convert 64-bit inst addresses to 32-bit inst equivalents
-mem:lat         103 1 # memory access latency (<first_chunk> <inter_chunk>)
-mem:width                  8 # memory access bus width (in bytes)
-tlb:itlb        itlb:16:4096:4:l # instruction TLB config, i.e., {<config>|none}
-tlb:dtlb        dtlb:32:4096:4:l # data TLB config, i.e., {<config>|none}
-tlb:lat                   30 # inst/data TLB miss latency (in cycles)
-res:ialu                   4 # total number of integer ALU's available
-res:imult                  1 # total number of integer multiplier/dividers available
-res:memport                2 # total number of memory system ports available (to CPU)
-res:fpalu                  4 # total number of floating point ALU's available
-res:fpmult                 1 # total number of floating point multiplier/dividers available
# -pcstat              <null> # profile stat(s) against text addr's (mult uses ok)
-bugcompat              false # operate in backward-compatible bugs mode (for testing only)

  Pipetrace range arguments are formatted as follows:

    {{@|#}<start>}:{{@|#|+}<end>}

  Both ends of the range are optional, if neither are specified, the entire
  execution is traced.  Ranges that start with a `@' designate an address
  range to be traced, those that start with an `#' designate a cycle count
  range.  All other range values represent an instruction count range.  The
  second argument, if specified with a `+', indicates a value relative
  to the first argument, e.g., 1000:+100 == 1000:1100.  Program symbols may
  be used in all contexts.

    Examples:   -ptrace FOO.trc #0:#1000
                -ptrace BAR.trc @2000:
                -ptrace BLAH.trc :1500
                -ptrace UXXE.trc :
                -ptrace FOOBAR.trc @main:+278

  Branch predictor configuration examples for 2-level predictor:
    Configurations:   N, M, W, X
      N   # entries in first level (# of shift register(s))
      W   width of shift register(s)
      M   # entries in 2nd level (# of counters, or other FSM)
      X   (yes-1/no-0) xor history and address for 2nd level index
    Sample predictors:
      GAg     : 1, W, 2^W, 0
      GAp     : 1, W, M (M > 2^W), 0
      PAg     : N, W, 2^W, 0
      PAp     : N, W, M (M == 2^(N+W)), 0
      gshare  : 1, W, 2^W, 1
  Predictor `comb' combines a bimodal and a 2-level predictor.

  The cache config parameter <config> has the following format:

    <name>:<nsets>:<bsize>:<assoc>:<repl>

    <name>   - name of the cache being defined
    <nsets>  - number of sets in the cache
    <bsize>  - block size of the cache
    <assoc>  - associativity of the cache
    <repl>   - block replacement strategy, 'l'-LRU, 'f'-FIFO, 'r'-random

    Examples:   -cache:dl1 dl1:4096:32:1:l
                -dtlb dtlb:128:4096:32:r

  Cache levels can be unified by pointing a level of the instruction cache
  hierarchy at the data cache hiearchy using the "dl1" and "dl2" cache
  configuration arguments.  Most sensible combinations are supported, e.g.,

    A unified l2 cache (il2 is pointed at dl2):
      -cache:il1 il1:128:64:1:l -cache:il2 dl2
      -cache:dl1 dl1:256:32:1:l -cache:dl2 ul2:1024:64:2:l

    Or, a fully unified cache hierarchy (il1 pointed at dl1):
      -cache:il1 dl1
      -cache:dl1 ul1:256:32:1:l -cache:dl2 ul2:1024:64:2:l



sim: ** starting performance simulation **

sim: ** simulation statistics **
sim_num_insn              100000000 # total number of instructions committed
sim_num_refs               32185222 # total number of loads and stores committed
sim_num_loads              24300619 # total number of loads committed
sim_num_stores         7884603.0000 # total number of stores committed
sim_num_branches           10034675 # total number of branches committed
sim_elapsed_time                110 # total simulation time in seconds
sim_inst_rate           909090.9091 # simulation speed (in insts/sec)
sim_total_insn            100000000 # total number of instructions executed
sim_total_refs             32185222 # total number of loads and stores executed
sim_total_loads            24300619 # total number of loads executed
sim_total_stores       7884603.0000 # total number of stores executed
sim_total_branches         10034675 # total number of branches executed
sim_cycle                  62495268 # total simulation time in cycles
sim_IPC                      1.6001 # instructions per cycle
sim_CPI                      0.6250 # cycles per instruction
sim_exec_BW                  1.6001 # total instructions (mis-spec + committed) per cycle
sim_IPB                      9.9654 # instruction per branch
IFQ_count                 999643959 # cumulative IFQ occupancy
IFQ_fcount                 62477336 # cumulative IFQ full count
ifq_occupancy               15.9955 # avg IFQ occupancy (insn's)
ifq_rate                     1.6001 # avg IFQ dispatch rate (insn/cycle)
ifq_latency                  9.9964 # avg IFQ occupant latency (cycle's)
ifq_full                     0.9997 # fraction of time (cycle's) IFQ was full
RUU_count                1492825930 # cumulative RUU occupancy
RUU_fcount                    19055 # cumulative RUU full count
ruu_occupancy               23.8870 # avg RUU occupancy (insn's)
ruu_rate                     1.6001 # avg RUU dispatch rate (insn/cycle)
ruu_latency                 14.9283 # avg RUU occupant latency (cycle's)
ruu_full                     0.0003 # fraction of time (cycle's) RUU was full
LSQ_count                 481965869 # cumulative LSQ occupancy
LSQ_fcount                 54424334 # cumulative LSQ full count
lsq_occupancy                7.7120 # avg LSQ occupancy (insn's)
lsq_rate                     1.6001 # avg LSQ dispatch rate (insn/cycle)
lsq_latency                  4.8197 # avg LSQ occupant latency (cycle's)
lsq_full                     0.8709 # fraction of time (cycle's) LSQ was full
sim_slip                 2106976863 # total number of slip cycles
avg_sim_slip                21.0698 # the average slip between issue and retirement
il1.accesses              182421684 # total number of accesses
il1.hits                  182421521 # total number of hits
il1.misses                      163 # total number of misses
il1.replacements                  0 # total number of replacements
il1.writebacks                    0 # total number of writebacks
il1.invalidations                 0 # total number of invalidations
il1.miss_rate                0.0000 # miss rate (i.e., misses/ref)
il1.repl_rate                0.0000 # replacement rate (i.e., repls/ref)
il1.wb_rate                  0.0000 # writeback rate (i.e., wrbks/ref)
il1.inv_rate                 0.0000 # invalidation rate (i.e., invs/ref)
dl1.accesses               31541595 # total number of accesses
dl1.hits                   30350606 # total number of hits
dl1.misses                  1190989 # total number of misses
dl1.replacements            1190733 # total number of replacements
dl1.writebacks               450586 # total number of writebacks
dl1.invalidations                 0 # total number of invalidations
dl1.miss_rate                0.0378 # miss rate (i.e., misses/ref)
dl1.repl_rate                0.0378 # replacement rate (i.e., repls/ref)
dl1.wb_rate                  0.0143 # writeback rate (i.e., wrbks/ref)
dl1.inv_rate                 0.0000 # invalidation rate (i.e., invs/ref)
dl2.accesses                1641738 # total number of accesses
dl2.hits                    1317032 # total number of hits
dl2.misses                   324706 # total number of misses
dl2.replacements             322658 # total number of replacements
dl2.writebacks               157425 # total number of writebacks
dl2.invalidations                 0 # total number of invalidations
dl2.miss_rate                0.1978 # miss rate (i.e., misses/ref)
dl2.repl_rate                0.1965 # replacement rate (i.e., repls/ref)
dl2.wb_rate                  0.0959 # writeback rate (i.e., wrbks/ref)
dl2.inv_rate                 0.0000 # invalidation rate (i.e., invs/ref)
itlb.accesses             182421684 # total number of accesses
itlb.hits                 182421675 # total number of hits
itlb.misses                       9 # total number of misses
itlb.replacements                 0 # total number of replacements
itlb.writebacks                   0 # total number of writebacks
itlb.invalidations                0 # total number of invalidations
itlb.miss_rate               0.0000 # miss rate (i.e., misses/ref)
itlb.repl_rate               0.0000 # replacement rate (i.e., repls/ref)
itlb.wb_rate                 0.0000 # writeback rate (i.e., wrbks/ref)
itlb.inv_rate                0.0000 # invalidation rate (i.e., invs/ref)
dtlb.accesses              32185217 # total number of accesses
dtlb.hits                  32184974 # total number of hits
dtlb.misses                     243 # total number of misses
dtlb.replacements               115 # total number of replacements
dtlb.writebacks                   0 # total number of writebacks
dtlb.invalidations                0 # total number of invalidations
dtlb.miss_rate               0.0000 # miss rate (i.e., misses/ref)
dtlb.repl_rate               0.0000 # replacement rate (i.e., repls/ref)
dtlb.wb_rate                 0.0000 # writeback rate (i.e., wrbks/ref)
dtlb.inv_rate                0.0000 # invalidation rate (i.e., invs/ref)
rename_power           204404430.2863 # total power usage of rename unit
bpred_power            208514743.9681 # total power usage of bpred unit
window_power           2700797353.9056 # total power usage of instruction window
lsq_power              101447328.1817 # total power usage of load/store queue
regfile_power          1571052461.2971 # total power usage of arch. regfile
icache_power           189527161.2890 # total power usage of icache
dcache_power           402400660.3020 # total power usage of dcache
dcache2_power          193921364.8274 # total power usage of dcache2
alu_power              1183733834.9696 # total power usage of alu
falu_power             892497731.9571 # total power usage of falu
resultbus_power        1957859015.5050 # total power usage of resultbus
clock_power            3269360084.8169 # total power usage of clock
avg_rename_power             3.2707 # avg power usage of rename unit
avg_bpred_power              3.3365 # avg power usage of bpred unit
avg_window_power            43.2160 # avg power usage of instruction window
avg_lsq_power                1.6233 # avg power usage of lsq
avg_regfile_power           25.1387 # avg power usage of arch. regfile
avg_icache_power             3.0327 # avg power usage of icache
avg_dcache_power             6.4389 # avg power usage of dcache
avg_dcache2_power            3.1030 # avg power usage of dcache2
avg_alu_power               18.9412 # avg power usage of alu
avg_falu_power              14.2810 # avg power usage of falu
avg_resultbus_power         31.3281 # avg power usage of resultbus
avg_clock_power             52.3137 # avg power usage of clock
fetch_stage_power      398041905.2571 # total power usage of fetch stage
dispatch_stage_power   204404430.2863 # total power usage of dispatch stage
issue_stage_power      6540159557.6912 # total power usage of issue stage
avg_fetch_power              6.3692 # average power of fetch unit per cycle
avg_dispatch_power           3.2707 # average power of dispatch unit per cycle
avg_issue_power            104.6505 # average power of issue unit per cycle
total_power            11983018439.3486 # total power per cycle
avg_total_power_cycle      191.7428 # average total power per cycle
avg_total_power_cycle_nofp_nod2     174.3588 # average total power per cycle
avg_total_power_insn       119.8302 # average total power per insn
avg_total_power_insn_nofp_nod2     108.9660 # average total power per insn
rename_power_cc1       71354404.1052 # total power usage of rename unit_cc1
bpred_power_cc1              0.0000 # total power usage of bpred unit_cc1
window_power_cc1       1385265226.6897 # total power usage of instruction window_cc1
lsq_power_cc1          15479606.0296 # total power usage of lsq_cc1
regfile_power_cc1      681711458.5701 # total power usage of arch. regfile_cc1
icache_power_cc1       66161005.3748 # total power usage of icache_cc1
dcache_power_cc1       129704380.1299 # total power usage of dcache_cc1
dcache2_power_cc1      3681321.9948 # total power usage of dcache2_cc1
alu_power_cc1          151659583.7555 # total power usage of alu_cc1
resultbus_power_cc1    1018462271.6836 # total power usage of resultbus_cc1
clock_power_cc1        1353503173.6824 # total power usage of clock_cc1
avg_rename_power_cc1         1.1418 # avg power usage of rename unit_cc1
avg_bpred_power_cc1          0.0000 # avg power usage of bpred unit_cc1
avg_window_power_cc1        22.1659 # avg power usage of instruction window_cc1
avg_lsq_power_cc1            0.2477 # avg power usage of lsq_cc1
avg_regfile_power_cc1       10.9082 # avg power usage of arch. regfile_cc1
avg_icache_power_cc1         1.0587 # avg power usage of icache_cc1
avg_dcache_power_cc1         2.0754 # avg power usage of dcache_cc1
avg_dcache2_power_cc1        0.0589 # avg power usage of dcache2_cc1
avg_alu_power_cc1            2.4267 # avg power usage of alu_cc1
avg_resultbus_power_cc1      16.2966 # avg power usage of resultbus_cc1
avg_clock_power_cc1         21.6577 # avg power usage of clock_cc1
fetch_stage_power_cc1  66161005.3748 # total power usage of fetch stage_cc1
dispatch_stage_power_cc1 71354404.1052 # total power usage of dispatch stage_cc1
issue_stage_power_cc1  2704252390.2832 # total power usage of issue stage_cc1
avg_fetch_power_cc1          1.0587 # average power of fetch unit per cycle_cc1
avg_dispatch_power_cc1       1.1418 # average power of dispatch unit per cycle_cc1
avg_issue_power_cc1         43.2713 # average power of issue unit per cycle_cc1
total_power_cycle_cc1  4876982432.0157 # total power per cycle_cc1
avg_total_power_cycle_cc1      78.0376 # average total power per cycle_cc1
avg_total_power_insn_cc1      48.7698 # average total power per insn_cc1
rename_power_cc2       20441990.7537 # total power usage of rename unit_cc2
bpred_power_cc2              0.0000 # total power usage of bpred unit_cc2
window_power_cc2       399640100.2350 # total power usage of instruction window_cc2
lsq_power_cc2          10809124.2960 # total power usage of lsq_cc2
regfile_power_cc2      68103315.6231 # total power usage of arch. regfile_cc2
icache_power_cc2       66161005.3748 # total power usage of icache_cc2
dcache_power_cc2       101546557.3769 # total power usage of dcache_cc2
dcache2_power_cc2      2547137.4399 # total power usage of dcache2_cc2
alu_power_cc2          116485551.7148 # total power usage of alu_cc2
resultbus_power_cc2    209750188.1001 # total power usage of resultbus_cc2
clock_power_cc2        382453181.9476 # total power usage of clock_cc2
avg_rename_power_cc2         0.3271 # avg power usage of rename unit_cc2
avg_bpred_power_cc2          0.0000 # avg power usage of bpred unit_cc2
avg_window_power_cc2         6.3947 # avg power usage of instruction window_cc2
avg_lsq_power_cc2            0.1730 # avg power usage of instruction lsq_cc2
avg_regfile_power_cc2        1.0897 # avg power usage of arch. regfile_cc2
avg_icache_power_cc2         1.0587 # avg power usage of icache_cc2
avg_dcache_power_cc2         1.6249 # avg power usage of dcache_cc2
avg_dcache2_power_cc2        0.0408 # avg power usage of dcache2_cc2
avg_alu_power_cc2            1.8639 # avg power usage of alu_cc2
avg_resultbus_power_cc2       3.3563 # avg power usage of resultbus_cc2
avg_clock_power_cc2          6.1197 # avg power usage of clock_cc2
fetch_stage_power_cc2  66161005.3748 # total power usage of fetch stage_cc2
dispatch_stage_power_cc2 20441990.7537 # total power usage of dispatch stage_cc2
issue_stage_power_cc2  840778659.1627 # total power usage of issue stage_cc2
avg_fetch_power_cc2          1.0587 # average power of fetch unit per cycle_cc2
avg_dispatch_power_cc2       0.3271 # average power of dispatch unit per cycle_cc2
avg_issue_power_cc2         13.4535 # average power of issue unit per cycle_cc2
total_power_cycle_cc2  1377938152.8620 # total power per cycle_cc2
avg_total_power_cycle_cc2      22.0487 # average total power per cycle_cc2
avg_total_power_insn_cc2      13.7794 # average total power per insn_cc2
rename_power_cc3       33746993.4232 # total power usage of rename unit_cc3
bpred_power_cc3        20851474.4117 # total power usage of bpred unit_cc3
window_power_cc3       518349959.4040 # total power usage of instruction window_cc3
lsq_power_cc3          19375273.9622 # total power usage of lsq_cc3
regfile_power_cc3      150707202.8644 # total power usage of arch. regfile_cc3
icache_power_cc3       78497621.0441 # total power usage of icache_cc3
dcache_power_cc3       129534525.7594 # total power usage of dcache_cc3
dcache2_power_cc3      21571898.2228 # total power usage of dcache2_cc3
alu_power_cc3          219692976.3477 # total power usage of alu_cc3
resultbus_power_cc3    296900113.5925 # total power usage of resultbus_cc3
clock_power_cc3        564341610.2969 # total power usage of clock_cc3
avg_rename_power_cc3         0.5400 # avg power usage of rename unit_cc3
avg_bpred_power_cc3          0.3336 # avg power usage of bpred unit_cc3
avg_window_power_cc3         8.2942 # avg power usage of instruction window_cc3
avg_lsq_power_cc3            0.3100 # avg power usage of instruction lsq_cc3
avg_regfile_power_cc3        2.4115 # avg power usage of arch. regfile_cc3
avg_icache_power_cc3         1.2561 # avg power usage of icache_cc3
avg_dcache_power_cc3         2.0727 # avg power usage of dcache_cc3
avg_dcache2_power_cc3        0.3452 # avg power usage of dcache2_cc3
avg_alu_power_cc3            3.5154 # avg power usage of alu_cc3
avg_resultbus_power_cc3       4.7508 # avg power usage of resultbus_cc3
avg_clock_power_cc3          9.0301 # avg power usage of clock_cc3
fetch_stage_power_cc3  99349095.4558 # total power usage of fetch stage_cc3
dispatch_stage_power_cc3 33746993.4232 # total power usage of dispatch stage_cc3
issue_stage_power_cc3  1205424747.2886 # total power usage of issue stage_cc3
avg_fetch_power_cc3          1.5897 # average power of fetch unit per cycle_cc3
avg_dispatch_power_cc3       0.5400 # average power of dispatch unit per cycle_cc3
avg_issue_power_cc3         19.2883 # average power of issue unit per cycle_cc3
total_power_cycle_cc3  2053569649.3290 # total power per cycle_cc3
avg_total_power_cycle_cc3      32.8596 # average total power per cycle_cc3
avg_total_power_insn_cc3      20.5357 # average total power per insn_cc3
total_rename_access       100000000 # total number accesses of rename unit
total_bpred_access                0 # total number accesses of bpred unit
total_window_access       376014070 # total number accesses of instruction window
total_lsq_access           32828840 # total number accesses of load/store queue
total_regfile_access      142984803 # total number accesses of arch. regfile
total_icache_access       182421684 # total number accesses of icache
total_dcache_access        31541595 # total number accesses of dcache
total_dcache2_access        1641738 # total number accesses of dcache2
total_alu_access           99984799 # total number accesses of alu
total_resultbus_access    114265937 # total number accesses of resultbus
avg_rename_access            1.6001 # avg number accesses of rename unit
avg_bpred_access             0.0000 # avg number accesses of bpred unit
avg_window_access            6.0167 # avg number accesses of instruction window
avg_lsq_access               0.5253 # avg number accesses of lsq
avg_regfile_access           2.2879 # avg number accesses of arch. regfile
avg_icache_access            2.9190 # avg number accesses of icache
avg_dcache_access            0.5047 # avg number accesses of dcache
avg_dcache2_access           0.0263 # avg number accesses of dcache2
avg_alu_access               1.5999 # avg number accesses of alu
avg_resultbus_access         1.8284 # avg number accesses of resultbus
max_rename_access                16 # max number accesses of rename unit
max_bpred_access                  0 # max number accesses of bpred unit
max_window_access                35 # max number accesses of instruction window
max_lsq_access                    6 # max number accesses of load/store queue
max_regfile_access               34 # max number accesses of arch. regfile
max_icache_access                16 # max number accesses of icache
max_dcache_access                 4 # max number accesses of dcache
max_dcache2_access                4 # max number accesses of dcache2
max_alu_access                    5 # max number accesses of alu
max_resultbus_access              8 # max number accesses of resultbus
max_cycle_power_cc1        144.3191 # maximum cycle power usage of cc1
max_cycle_power_cc2         68.9211 # maximum cycle power usage of cc2
max_cycle_power_cc3         73.7160 # maximum cycle power usage of cc3
sim_invalid_addrs                 0 # total non-speculative bogus addresses seen (debug var)
ld_text_base           0x0120000000 # program text (code) segment base
ld_text_size                 212992 # program text (code) size in bytes
ld_data_base           0x0140000000 # program initialized data segment base
ld_data_size                 402416 # program init'ed `.data' and uninit'ed `.bss' size in bytes
ld_stack_base          0x011ff9b000 # program stack segment base (highest address in stack)
ld_stack_size                 16384 # program initial stack size
ld_prog_entry          0x01200150ec # program entry point (initial PC)
ld_environ_base        0x011ff96ed0 # program environment base address address
ld_target_big_endian              0 # target executable endian-ness, non-zero if big endian
mem.page_count                23126 # total number of pages allocated
mem.page_mem                185008k # total size of memory pages allocated
mem.ptab_misses             9758113 # total first level page table misses
mem.ptab_accesses        1064796040 # total page table accesses
mem.ptab_miss_rate           0.0092 # first level page table miss rate

