sim-outorder: SimpleScalar/Alpha Tool Set version 3.0 of August, 2003.
Copyright (c) 1994-2003 by Todd M. Austin, Ph.D. and SimpleScalar, LLC.
All Rights Reserved. This version of SimpleScalar is licensed for academic
non-commercial use.  No portion of this work may be used by any commercial
entity, or for any commercial purpose, without the prior written permission
of SimpleScalar, LLC (info@simplescalar.com).


Processor Parameters:
Issue Width: 16
Window Size: 64
Number of Virtual Registers: 32
Number of Physical Registers: 64
Datapath Width: 64
Total Power Consumption: 193.743
Branch Predictor Power Consumption: 3.33649  (1.74%)
 branch target buffer power (W): 2.49493
 local predict power (W): 0.574771
 global predict power (W): 0.0996078
 chooser power (W): 0.0702439
 RAS power (W): 0.0969383
Rename Logic Power Consumption: 3.27072  (1.71%)
 Instruction Decode Power (W): 0.0639661
 RAT decode_power (W): 0.454058
 RAT wordline_power (W): 0.227603
 RAT bitline_power (W): 2.30694
 DCL Comparators (W): 0.218151
Instruction Window Power Consumption: 43.216  (22.5%)
 tagdrive (W): 2.9395
 tagmatch (W): 0.989695
 Selection Logic (W): 0.225484
 decode_power (W): 0.976583
 wordline_power (W): 1.0557
 bitline_power (W): 37.0291
Load/Store Queue Power Consumption: 1.62328  (0.847%)
 tagdrive (W): 0.457232
 tagmatch (W): 0.100875
 decode_power (W): 0.00799577
 wordline_power (W): 0.0150119
 bitline_power (W): 1.04217
Arch. Register File Power Consumption: 25.1387  (13.1%)
 decode_power (W): 0.454058
 wordline_power (W): 1.0557
 bitline_power (W): 23.629
Result Bus Power Consumption: 31.3281  (16.3%)
Total Clock Power: 52.3137  (27.3%)
Int ALU Power: 4.66013  (2.43%)
FP ALU Power: 14.281  (7.45%)
Instruction Cache Power Consumption: 2.76773  (1.44%)
 decode_power (W): 0.151353
 wordline_power (W): 0.180479
 bitline_power (W): 1.42251
 senseamp_power (W): 0.768
 tagarray_power (W): 0.245382
Itlb_power (W): 0.264936 (0.138%)
Data Cache Power Consumption: 5.53546  (2.89%)
 decode_power (W): 0.302705
 wordline_power (W): 0.360958
 bitline_power (W): 2.84503
 senseamp_power (W): 1.536
 tagarray_power (W): 0.490764
Dtlb_power (W): 0.903441 (0.471%)
Level 2 Cache Power Consumption: 3.10298 (1.62%)
 decode_power (W): 0.19487
 wordline_power (W): 0.0430878
 bitline_power (W): 1.77274
 senseamp_power (W): 0.192
 tagarray_power (W): 0.900275
sim: loading EIO file: ../benchmarks/176.gcc.00-200-ref.eio.gz
sim: command line: ./sim-outorder -config ../configs/current.config ../benchmarks/176.gcc.00-200-ref.eio.gz 

sim: simulation started @ Tue Nov 24 11:16:33 2015, options follow:

sim-outorder: This simulator implements a very detailed out-of-order issue
superscalar processor with a two-level memory system and speculative
execution support.  This simulator is a performance simulator, tracking the
latency of all pipeline operations.

# -config                     # load configuration from a file
# -dumpconfig                 # dump configuration to a file
# -h                    false # print help message    
# -v                    false # verbose operation     
# -d                    false # enable debug message  
# -i                    false # start in Dlite debugger
-seed                       1 # random number generator seed (0 for timer seed)
# -q                    false # initialize and terminate immediately
# -chkpt               <null> # restore EIO trace execution from <fname>
# -redir:sim     ../results/19_17_width/176.gcc.00-200-ref.eio.gz.out # redirect simulator output to file (non-interactive only)
# -redir:prog       /dev/null # redirect simulated program output to file
-nice                       0 # simulator scheduling priority
-freq            600000000.0000 # frequency             
-max:inst           100000000 # maximum number of inst's to execute
-fastfwd                    0 # number of insts skipped before timing starts
# -ptrace              <null> # generate pipetrace, i.e., <fname|stdout|stderr> <range>
-fetch:ifqsize             16 # instruction fetch queue size (in insts)
-fetch:mplat               15 # extra branch mis-prediction latency
-fetch:speed                1 # speed of front-end of machine relative to execution core
-bpred                perfect # branch predictor type {nottaken|taken|perfect|bimod|2lev|comb}
-bpred:bimod     2048 # bimodal predictor config (<table size>)
-bpred:2lev      1 16384 4 0 # 2-level predictor config (<l1size> <l2size> <hist_size> <xor>)
-bpred:comb      1024 # combining predictor config (<meta_table_size>)
-bpred:ras                  8 # return address stack size (0 for no return stack)
-bpred:btb       512 4 # BTB config (<num_sets> <associativity>)
# -bpred:spec_update       <null> # speculative predictors update in {ID|WB} (default non-spec)
-decode:width              16 # instruction decode B/W (insts/cycle)
-issue:width               16 # instruction issue B/W (insts/cycle)
-issue:inorder          false # run pipeline with in-order issue
-issue:wrongpath         true # issue instructions down wrong execution paths
-commit:width              16 # instruction commit B/W (insts/cycle)
-ruu:size                  64 # register update unit (RUU) size
-lsq:size                   8 # load/store queue (LSQ) size
-cache:dl1       dl1:32:64:8:f # l1 data cache config, i.e., {<config>|none}
-cache:dl1lat               1 # l1 data cache hit latency (in cycles)
-cache:dl2       dl2:256:64:8:f # l2 data cache config, i.e., {<config>|none}
-cache:dl2lat               2 # l2 data cache hit latency (in cycles)
-cache:il1       il1:32:64:8:f # l1 inst cache config, i.e., {<config>|dl1|dl2|none}
-cache:il1lat               1 # l1 instruction cache hit latency (in cycles)
-cache:il2                dl2 # l2 instruction cache config, i.e., {<config>|dl2|none}
-cache:il2lat               2 # l2 instruction cache hit latency (in cycles)
-cache:flush            false # flush caches on system calls
-cache:icompress        false # convert 64-bit inst addresses to 32-bit inst equivalents
-mem:lat         103 1 # memory access latency (<first_chunk> <inter_chunk>)
-mem:width                  8 # memory access bus width (in bytes)
-tlb:itlb        itlb:16:4096:4:l # instruction TLB config, i.e., {<config>|none}
-tlb:dtlb        dtlb:32:4096:4:l # data TLB config, i.e., {<config>|none}
-tlb:lat                   30 # inst/data TLB miss latency (in cycles)
-res:ialu                   4 # total number of integer ALU's available
-res:imult                  1 # total number of integer multiplier/dividers available
-res:memport                2 # total number of memory system ports available (to CPU)
-res:fpalu                  4 # total number of floating point ALU's available
-res:fpmult                 1 # total number of floating point multiplier/dividers available
# -pcstat              <null> # profile stat(s) against text addr's (mult uses ok)
-bugcompat              false # operate in backward-compatible bugs mode (for testing only)

  Pipetrace range arguments are formatted as follows:

    {{@|#}<start>}:{{@|#|+}<end>}

  Both ends of the range are optional, if neither are specified, the entire
  execution is traced.  Ranges that start with a `@' designate an address
  range to be traced, those that start with an `#' designate a cycle count
  range.  All other range values represent an instruction count range.  The
  second argument, if specified with a `+', indicates a value relative
  to the first argument, e.g., 1000:+100 == 1000:1100.  Program symbols may
  be used in all contexts.

    Examples:   -ptrace FOO.trc #0:#1000
                -ptrace BAR.trc @2000:
                -ptrace BLAH.trc :1500
                -ptrace UXXE.trc :
                -ptrace FOOBAR.trc @main:+278

  Branch predictor configuration examples for 2-level predictor:
    Configurations:   N, M, W, X
      N   # entries in first level (# of shift register(s))
      W   width of shift register(s)
      M   # entries in 2nd level (# of counters, or other FSM)
      X   (yes-1/no-0) xor history and address for 2nd level index
    Sample predictors:
      GAg     : 1, W, 2^W, 0
      GAp     : 1, W, M (M > 2^W), 0
      PAg     : N, W, 2^W, 0
      PAp     : N, W, M (M == 2^(N+W)), 0
      gshare  : 1, W, 2^W, 1
  Predictor `comb' combines a bimodal and a 2-level predictor.

  The cache config parameter <config> has the following format:

    <name>:<nsets>:<bsize>:<assoc>:<repl>

    <name>   - name of the cache being defined
    <nsets>  - number of sets in the cache
    <bsize>  - block size of the cache
    <assoc>  - associativity of the cache
    <repl>   - block replacement strategy, 'l'-LRU, 'f'-FIFO, 'r'-random

    Examples:   -cache:dl1 dl1:4096:32:1:l
                -dtlb dtlb:128:4096:32:r

  Cache levels can be unified by pointing a level of the instruction cache
  hierarchy at the data cache hiearchy using the "dl1" and "dl2" cache
  configuration arguments.  Most sensible combinations are supported, e.g.,

    A unified l2 cache (il2 is pointed at dl2):
      -cache:il1 il1:128:64:1:l -cache:il2 dl2
      -cache:dl1 dl1:256:32:1:l -cache:dl2 ul2:1024:64:2:l

    Or, a fully unified cache hierarchy (il1 pointed at dl1):
      -cache:il1 dl1
      -cache:dl1 ul1:256:32:1:l -cache:dl2 ul2:1024:64:2:l



sim: ** starting performance simulation **

sim: ** simulation statistics **
sim_num_insn              100000000 # total number of instructions committed
sim_num_refs               42798694 # total number of loads and stores committed
sim_num_loads              32645610 # total number of loads committed
sim_num_stores         10153084.0000 # total number of stores committed
sim_num_branches           14873758 # total number of branches committed
sim_elapsed_time                108 # total simulation time in seconds
sim_inst_rate           925925.9259 # simulation speed (in insts/sec)
sim_total_insn            100000000 # total number of instructions executed
sim_total_refs             42798694 # total number of loads and stores executed
sim_total_loads            32645610 # total number of loads executed
sim_total_stores       10153084.0000 # total number of stores executed
sim_total_branches         14873758 # total number of branches executed
sim_cycle                  56201387 # total simulation time in cycles
sim_IPC                      1.7793 # instructions per cycle
sim_CPI                      0.5620 # cycles per instruction
sim_exec_BW                  1.7793 # total instructions (mis-spec + committed) per cycle
sim_IPB                      6.7233 # instruction per branch
IFQ_count                 709301279 # cumulative IFQ occupancy
IFQ_fcount                 43094261 # cumulative IFQ full count
ifq_occupancy               12.6207 # avg IFQ occupancy (insn's)
ifq_rate                     1.7793 # avg IFQ dispatch rate (insn/cycle)
ifq_latency                  7.0930 # avg IFQ occupant latency (cycle's)
ifq_full                     0.7668 # fraction of time (cycle's) IFQ was full
RUU_count                 836785607 # cumulative RUU occupancy
RUU_fcount                    85629 # cumulative RUU full count
ruu_occupancy               14.8891 # avg RUU occupancy (insn's)
ruu_rate                     1.7793 # avg RUU dispatch rate (insn/cycle)
ruu_latency                  8.3679 # avg RUU occupant latency (cycle's)
ruu_full                     0.0015 # fraction of time (cycle's) RUU was full
LSQ_count                 346511795 # cumulative LSQ occupancy
LSQ_fcount                 35103108 # cumulative LSQ full count
lsq_occupancy                6.1655 # avg LSQ occupancy (insn's)
lsq_rate                     1.7793 # avg LSQ dispatch rate (insn/cycle)
lsq_latency                  3.4651 # avg LSQ occupant latency (cycle's)
lsq_full                     0.6246 # fraction of time (cycle's) LSQ was full
sim_slip                 1326095973 # total number of slip cycles
avg_sim_slip                13.2610 # the average slip between issue and retirement
il1.accesses              212563013 # total number of accesses
il1.hits                  210570122 # total number of hits
il1.misses                  1992891 # total number of misses
il1.replacements            1992635 # total number of replacements
il1.writebacks                    0 # total number of writebacks
il1.invalidations                 0 # total number of invalidations
il1.miss_rate                0.0094 # miss rate (i.e., misses/ref)
il1.repl_rate                0.0094 # replacement rate (i.e., repls/ref)
il1.wb_rate                  0.0000 # writeback rate (i.e., wrbks/ref)
il1.inv_rate                 0.0000 # invalidation rate (i.e., invs/ref)
dl1.accesses               42484112 # total number of accesses
dl1.hits                   41959268 # total number of hits
dl1.misses                   524844 # total number of misses
dl1.replacements             524588 # total number of replacements
dl1.writebacks               289087 # total number of writebacks
dl1.invalidations                 0 # total number of invalidations
dl1.miss_rate                0.0124 # miss rate (i.e., misses/ref)
dl1.repl_rate                0.0123 # replacement rate (i.e., repls/ref)
dl1.wb_rate                  0.0068 # writeback rate (i.e., wrbks/ref)
dl1.inv_rate                 0.0000 # invalidation rate (i.e., invs/ref)
dl2.accesses                2806822 # total number of accesses
dl2.hits                    2449467 # total number of hits
dl2.misses                   357355 # total number of misses
dl2.replacements             355307 # total number of replacements
dl2.writebacks               196218 # total number of writebacks
dl2.invalidations                 0 # total number of invalidations
dl2.miss_rate                0.1273 # miss rate (i.e., misses/ref)
dl2.repl_rate                0.1266 # replacement rate (i.e., repls/ref)
dl2.wb_rate                  0.0699 # writeback rate (i.e., wrbks/ref)
dl2.inv_rate                 0.0000 # invalidation rate (i.e., invs/ref)
itlb.accesses             212563013 # total number of accesses
itlb.hits                 212551822 # total number of hits
itlb.misses                   11191 # total number of misses
itlb.replacements             11127 # total number of replacements
itlb.writebacks                   0 # total number of writebacks
itlb.invalidations                0 # total number of invalidations
itlb.miss_rate               0.0001 # miss rate (i.e., misses/ref)
itlb.repl_rate               0.0001 # replacement rate (i.e., repls/ref)
itlb.wb_rate                 0.0000 # writeback rate (i.e., wrbks/ref)
itlb.inv_rate                0.0000 # invalidation rate (i.e., invs/ref)
dtlb.accesses              42798688 # total number of accesses
dtlb.hits                  42780348 # total number of hits
dtlb.misses                   18340 # total number of misses
dtlb.replacements             18212 # total number of replacements
dtlb.writebacks                   0 # total number of writebacks
dtlb.invalidations                0 # total number of invalidations
dtlb.miss_rate               0.0004 # miss rate (i.e., misses/ref)
dtlb.repl_rate               0.0004 # replacement rate (i.e., repls/ref)
dtlb.wb_rate                 0.0000 # writeback rate (i.e., wrbks/ref)
dtlb.inv_rate                0.0000 # invalidation rate (i.e., invs/ref)
rename_power           183818917.1689 # total power usage of rename unit
bpred_power            187515282.2959 # total power usage of bpred unit
window_power           2428800806.0337 # total power usage of instruction window
lsq_power              91230596.0711 # total power usage of load/store queue
regfile_power          1412832206.3461 # total power usage of arch. regfile
icache_power           170439933.8284 # total power usage of icache
dcache_power           361875001.9741 # total power usage of dcache
dcache2_power          174391598.2962 # total power usage of dcache2
alu_power              1064520330.6191 # total power usage of alu
falu_power             802614534.4231 # total power usage of falu
resultbus_power        1760683580.3233 # total power usage of resultbus
clock_power            2940103743.0407 # total power usage of clock
avg_rename_power             3.2707 # avg power usage of rename unit
avg_bpred_power              3.3365 # avg power usage of bpred unit
avg_window_power            43.2160 # avg power usage of instruction window
avg_lsq_power                1.6233 # avg power usage of lsq
avg_regfile_power           25.1387 # avg power usage of arch. regfile
avg_icache_power             3.0327 # avg power usage of icache
avg_dcache_power             6.4389 # avg power usage of dcache
avg_dcache2_power            3.1030 # avg power usage of dcache2
avg_alu_power               18.9412 # avg power usage of alu
avg_falu_power              14.2810 # avg power usage of falu
avg_resultbus_power         31.3281 # avg power usage of resultbus
avg_clock_power             52.3137 # avg power usage of clock
fetch_stage_power      357955216.1243 # total power usage of fetch stage
dispatch_stage_power   183818917.1689 # total power usage of dispatch stage
issue_stage_power      5881501913.3174 # total power usage of issue stage
avg_fetch_power              6.3692 # average power of fetch unit per cycle
avg_dispatch_power           3.2707 # average power of dispatch unit per cycle
avg_issue_power            104.6505 # average power of issue unit per cycle
total_power            10776211995.9974 # total power per cycle
avg_total_power_cycle      191.7428 # average total power per cycle
avg_total_power_cycle_nofp_nod2     174.3588 # average total power per cycle
avg_total_power_insn       107.7621 # average total power per insn
avg_total_power_insn_nofp_nod2      97.9921 # average total power per insn
rename_power_cc1       80564901.1670 # total power usage of rename unit_cc1
bpred_power_cc1              0.0000 # total power usage of bpred unit_cc1
window_power_cc1       1502551583.0119 # total power usage of instruction window_cc1
lsq_power_cc1          18792674.3818 # total power usage of lsq_cc1
regfile_power_cc1      708731238.7622 # total power usage of arch. regfile_cc1
icache_power_cc1       76404693.0017 # total power usage of icache_cc1
dcache_power_cc1       171106761.8539 # total power usage of dcache_cc1
dcache2_power_cc1      7765238.1593 # total power usage of dcache2_cc1
alu_power_cc1          159967818.2411 # total power usage of alu_cc1
resultbus_power_cc1    1074744152.5189 # total power usage of resultbus_cc1
clock_power_cc1        1549984461.7987 # total power usage of clock_cc1
avg_rename_power_cc1         1.4335 # avg power usage of rename unit_cc1
avg_bpred_power_cc1          0.0000 # avg power usage of bpred unit_cc1
avg_window_power_cc1        26.7351 # avg power usage of instruction window_cc1
avg_lsq_power_cc1            0.3344 # avg power usage of lsq_cc1
avg_regfile_power_cc1       12.6106 # avg power usage of arch. regfile_cc1
avg_icache_power_cc1         1.3595 # avg power usage of icache_cc1
avg_dcache_power_cc1         3.0445 # avg power usage of dcache_cc1
avg_dcache2_power_cc1        0.1382 # avg power usage of dcache2_cc1
avg_alu_power_cc1            2.8463 # avg power usage of alu_cc1
avg_resultbus_power_cc1      19.1231 # avg power usage of resultbus_cc1
avg_clock_power_cc1         27.5791 # avg power usage of clock_cc1
fetch_stage_power_cc1  76404693.0017 # total power usage of fetch stage_cc1
dispatch_stage_power_cc1 80564901.1670 # total power usage of dispatch stage_cc1
issue_stage_power_cc1  2934928228.1669 # total power usage of issue stage_cc1
avg_fetch_power_cc1          1.3595 # average power of fetch unit per cycle_cc1
avg_dispatch_power_cc1       1.4335 # average power of dispatch unit per cycle_cc1
avg_issue_power_cc1         52.2216 # average power of issue unit per cycle_cc1
total_power_cycle_cc1  5350613522.8965 # total power per cycle_cc1
avg_total_power_cycle_cc1      95.2043 # average total power per cycle_cc1
avg_total_power_insn_cc1      53.5061 # average total power per insn_cc1
rename_power_cc2       20441990.7532 # total power usage of rename unit_cc2
bpred_power_cc2              0.0000 # total power usage of bpred unit_cc2
window_power_cc2       412304412.0670 # total power usage of instruction window_cc2
lsq_power_cc2          14050918.6230 # total power usage of lsq_cc2
regfile_power_cc2      64232069.2704 # total power usage of arch. regfile_cc2
icache_power_cc2       76404693.0017 # total power usage of icache_cc2
dcache_power_cc2       136775433.1050 # total power usage of dcache_cc2
dcache2_power_cc2      4354751.7347 # total power usage of dcache2_cc2
alu_power_cc2          116348259.1186 # total power usage of alu_cc2
resultbus_power_cc2    216185709.4407 # total power usage of resultbus_cc2
clock_power_cc2        414719667.1846 # total power usage of clock_cc2
avg_rename_power_cc2         0.3637 # avg power usage of rename unit_cc2
avg_bpred_power_cc2          0.0000 # avg power usage of bpred unit_cc2
avg_window_power_cc2         7.3362 # avg power usage of instruction window_cc2
avg_lsq_power_cc2            0.2500 # avg power usage of instruction lsq_cc2
avg_regfile_power_cc2        1.1429 # avg power usage of arch. regfile_cc2
avg_icache_power_cc2         1.3595 # avg power usage of icache_cc2
avg_dcache_power_cc2         2.4337 # avg power usage of dcache_cc2
avg_dcache2_power_cc2        0.0775 # avg power usage of dcache2_cc2
avg_alu_power_cc2            2.0702 # avg power usage of alu_cc2
avg_resultbus_power_cc2       3.8466 # avg power usage of resultbus_cc2
avg_clock_power_cc2          7.3792 # avg power usage of clock_cc2
fetch_stage_power_cc2  76404693.0017 # total power usage of fetch stage_cc2
dispatch_stage_power_cc2 20441990.7532 # total power usage of dispatch stage_cc2
issue_stage_power_cc2  900019484.0889 # total power usage of issue stage_cc2
avg_fetch_power_cc2          1.3595 # average power of fetch unit per cycle_cc2
avg_dispatch_power_cc2       0.3637 # average power of dispatch unit per cycle_cc2
avg_issue_power_cc2         16.0142 # average power of issue unit per cycle_cc2
total_power_cycle_cc2  1475817904.2988 # total power per cycle_cc2
avg_total_power_cycle_cc2      26.2595 # average total power per cycle_cc2
avg_total_power_insn_cc2      14.7582 # average total power per insn_cc2
rename_power_cc3       30767392.3912 # total power usage of rename unit_cc3
bpred_power_cc3        18751528.2351 # total power usage of bpred unit_cc3
window_power_cc3       487556593.8198 # total power usage of instruction window_cc3
lsq_power_cc3          21298232.8921 # total power usage of lsq_cc3
regfile_power_cc3      125831395.7248 # total power usage of arch. regfile_cc3
icache_power_cc3       85808217.1421 # total power usage of icache_cc3
dcache_power_cc3       156789872.0211 # total power usage of dcache_cc3
dcache2_power_cc3      21018963.8993 # total power usage of dcache2_cc3
alu_power_cc3          206803509.9362 # total power usage of alu_cc3
resultbus_power_cc3    277614690.8418 # total power usage of resultbus_cc3
clock_power_cc3        540063757.7526 # total power usage of clock_cc3
avg_rename_power_cc3         0.5474 # avg power usage of rename unit_cc3
avg_bpred_power_cc3          0.3336 # avg power usage of bpred unit_cc3
avg_window_power_cc3         8.6752 # avg power usage of instruction window_cc3
avg_lsq_power_cc3            0.3790 # avg power usage of instruction lsq_cc3
avg_regfile_power_cc3        2.2389 # avg power usage of arch. regfile_cc3
avg_icache_power_cc3         1.5268 # avg power usage of icache_cc3
avg_dcache_power_cc3         2.7898 # avg power usage of dcache_cc3
avg_dcache2_power_cc3        0.3740 # avg power usage of dcache2_cc3
avg_alu_power_cc3            3.6797 # avg power usage of alu_cc3
avg_resultbus_power_cc3       4.9396 # avg power usage of resultbus_cc3
avg_clock_power_cc3          9.6094 # avg power usage of clock_cc3
fetch_stage_power_cc3  104559745.3773 # total power usage of fetch stage_cc3
dispatch_stage_power_cc3 30767392.3912 # total power usage of dispatch stage_cc3
issue_stage_power_cc3  1171081863.4104 # total power usage of issue stage_cc3
avg_fetch_power_cc3          1.8604 # average power of fetch unit per cycle_cc3
avg_dispatch_power_cc3       0.5474 # average power of dispatch unit per cycle_cc3
avg_issue_power_cc3         20.8372 # average power of issue unit per cycle_cc3
total_power_cycle_cc3  1972304154.6563 # total power per cycle_cc3
avg_total_power_cycle_cc3      35.0935 # average total power per cycle_cc3
avg_total_power_insn_cc3      19.7230 # average total power per insn_cc3
total_rename_access       100000000 # total number accesses of rename unit
total_bpred_access                0 # total number accesses of bpred unit
total_window_access       395244452 # total number accesses of instruction window
total_lsq_access           43113264 # total number accesses of load/store queue
total_regfile_access      139405291 # total number accesses of arch. regfile
total_icache_access       212563013 # total number accesses of icache
total_dcache_access        42484112 # total number accesses of dcache
total_dcache2_access        2806822 # total number accesses of dcache2
total_alu_access           99797112 # total number accesses of alu
total_resultbus_access    117771826 # total number accesses of resultbus
avg_rename_access            1.7793 # avg number accesses of rename unit
avg_bpred_access             0.0000 # avg number accesses of bpred unit
avg_window_access            7.0326 # avg number accesses of instruction window
avg_lsq_access               0.7671 # avg number accesses of lsq
avg_regfile_access           2.4805 # avg number accesses of arch. regfile
avg_icache_access            3.7822 # avg number accesses of icache
avg_dcache_access            0.7559 # avg number accesses of dcache
avg_dcache2_access           0.0499 # avg number accesses of dcache2
avg_alu_access               1.7757 # avg number accesses of alu
avg_resultbus_access         2.0955 # avg number accesses of resultbus
max_rename_access                16 # max number accesses of rename unit
max_bpred_access                  0 # max number accesses of bpred unit
max_window_access                38 # max number accesses of instruction window
max_lsq_access                    6 # max number accesses of load/store queue
max_regfile_access               32 # max number accesses of arch. regfile
max_icache_access                16 # max number accesses of icache
max_dcache_access                 4 # max number accesses of dcache
max_dcache2_access                5 # max number accesses of dcache2
max_alu_access                    6 # max number accesses of alu
max_resultbus_access              8 # max number accesses of resultbus
max_cycle_power_cc1        153.8346 # maximum cycle power usage of cc1
max_cycle_power_cc2         72.7677 # maximum cycle power usage of cc2
max_cycle_power_cc3         77.0347 # maximum cycle power usage of cc3
sim_invalid_addrs                 0 # total non-speculative bogus addresses seen (debug var)
ld_text_base           0x0120000000 # program text (code) segment base
ld_text_size                1990656 # program text (code) size in bytes
ld_data_base           0x0140000000 # program initialized data segment base
ld_data_size                 306320 # program init'ed `.data' and uninit'ed `.bss' size in bytes
ld_stack_base          0x011ff9b000 # program stack segment base (highest address in stack)
ld_stack_size                 16384 # program initial stack size
ld_prog_entry          0x01200cee50 # program entry point (initial PC)
ld_environ_base        0x011ff3bfe0 # program environment base address address
ld_target_big_endian              0 # target executable endian-ness, non-zero if big endian
mem.page_count                 8420 # total number of pages allocated
mem.page_mem                 67360k # total size of memory pages allocated
mem.ptab_misses              103224 # total first level page table misses
mem.ptab_accesses        1148505744 # total page table accesses
mem.ptab_miss_rate           0.0001 # first level page table miss rate

