sim-outorder: SimpleScalar/Alpha Tool Set version 3.0 of August, 2003.
Copyright (c) 1994-2003 by Todd M. Austin, Ph.D. and SimpleScalar, LLC.
All Rights Reserved. This version of SimpleScalar is licensed for academic
non-commercial use.  No portion of this work may be used by any commercial
entity, or for any commercial purpose, without the prior written permission
of SimpleScalar, LLC (info@simplescalar.com).


Processor Parameters:
Issue Width: 16
Window Size: 64
Number of Virtual Registers: 32
Number of Physical Registers: 64
Datapath Width: 64
Total Power Consumption: 193.743
Branch Predictor Power Consumption: 3.33649  (1.74%)
 branch target buffer power (W): 2.49493
 local predict power (W): 0.574771
 global predict power (W): 0.0996078
 chooser power (W): 0.0702439
 RAS power (W): 0.0969383
Rename Logic Power Consumption: 3.27072  (1.71%)
 Instruction Decode Power (W): 0.0639661
 RAT decode_power (W): 0.454058
 RAT wordline_power (W): 0.227603
 RAT bitline_power (W): 2.30694
 DCL Comparators (W): 0.218151
Instruction Window Power Consumption: 43.216  (22.5%)
 tagdrive (W): 2.9395
 tagmatch (W): 0.989695
 Selection Logic (W): 0.225484
 decode_power (W): 0.976583
 wordline_power (W): 1.0557
 bitline_power (W): 37.0291
Load/Store Queue Power Consumption: 1.62328  (0.847%)
 tagdrive (W): 0.457232
 tagmatch (W): 0.100875
 decode_power (W): 0.00799577
 wordline_power (W): 0.0150119
 bitline_power (W): 1.04217
Arch. Register File Power Consumption: 25.1387  (13.1%)
 decode_power (W): 0.454058
 wordline_power (W): 1.0557
 bitline_power (W): 23.629
Result Bus Power Consumption: 31.3281  (16.3%)
Total Clock Power: 52.3137  (27.3%)
Int ALU Power: 4.66013  (2.43%)
FP ALU Power: 14.281  (7.45%)
Instruction Cache Power Consumption: 2.76773  (1.44%)
 decode_power (W): 0.151353
 wordline_power (W): 0.180479
 bitline_power (W): 1.42251
 senseamp_power (W): 0.768
 tagarray_power (W): 0.245382
Itlb_power (W): 0.264936 (0.138%)
Data Cache Power Consumption: 5.53546  (2.89%)
 decode_power (W): 0.302705
 wordline_power (W): 0.360958
 bitline_power (W): 2.84503
 senseamp_power (W): 1.536
 tagarray_power (W): 0.490764
Dtlb_power (W): 0.903441 (0.471%)
Level 2 Cache Power Consumption: 3.10298 (1.62%)
 decode_power (W): 0.19487
 wordline_power (W): 0.0430878
 bitline_power (W): 1.77274
 senseamp_power (W): 0.192
 tagarray_power (W): 0.900275
sim: loading EIO file: ../benchmarks/191.fma3d.spec_ref.eio.gz
sim: command line: ./sim-outorder -config ../configs/current.config ../benchmarks/191.fma3d.spec_ref.eio.gz 

sim: simulation started @ Tue Nov 24 11:16:35 2015, options follow:

sim-outorder: This simulator implements a very detailed out-of-order issue
superscalar processor with a two-level memory system and speculative
execution support.  This simulator is a performance simulator, tracking the
latency of all pipeline operations.

# -config                     # load configuration from a file
# -dumpconfig                 # dump configuration to a file
# -h                    false # print help message    
# -v                    false # verbose operation     
# -d                    false # enable debug message  
# -i                    false # start in Dlite debugger
-seed                       1 # random number generator seed (0 for timer seed)
# -q                    false # initialize and terminate immediately
# -chkpt               <null> # restore EIO trace execution from <fname>
# -redir:sim     ../results/19_17_width/191.fma3d.spec_ref.eio.gz.out # redirect simulator output to file (non-interactive only)
# -redir:prog       /dev/null # redirect simulated program output to file
-nice                       0 # simulator scheduling priority
-freq            600000000.0000 # frequency             
-max:inst           100000000 # maximum number of inst's to execute
-fastfwd                    0 # number of insts skipped before timing starts
# -ptrace              <null> # generate pipetrace, i.e., <fname|stdout|stderr> <range>
-fetch:ifqsize             16 # instruction fetch queue size (in insts)
-fetch:mplat               15 # extra branch mis-prediction latency
-fetch:speed                1 # speed of front-end of machine relative to execution core
-bpred                perfect # branch predictor type {nottaken|taken|perfect|bimod|2lev|comb}
-bpred:bimod     2048 # bimodal predictor config (<table size>)
-bpred:2lev      1 16384 4 0 # 2-level predictor config (<l1size> <l2size> <hist_size> <xor>)
-bpred:comb      1024 # combining predictor config (<meta_table_size>)
-bpred:ras                  8 # return address stack size (0 for no return stack)
-bpred:btb       512 4 # BTB config (<num_sets> <associativity>)
# -bpred:spec_update       <null> # speculative predictors update in {ID|WB} (default non-spec)
-decode:width              16 # instruction decode B/W (insts/cycle)
-issue:width               16 # instruction issue B/W (insts/cycle)
-issue:inorder          false # run pipeline with in-order issue
-issue:wrongpath         true # issue instructions down wrong execution paths
-commit:width              16 # instruction commit B/W (insts/cycle)
-ruu:size                  64 # register update unit (RUU) size
-lsq:size                   8 # load/store queue (LSQ) size
-cache:dl1       dl1:32:64:8:f # l1 data cache config, i.e., {<config>|none}
-cache:dl1lat               1 # l1 data cache hit latency (in cycles)
-cache:dl2       dl2:256:64:8:f # l2 data cache config, i.e., {<config>|none}
-cache:dl2lat               2 # l2 data cache hit latency (in cycles)
-cache:il1       il1:32:64:8:f # l1 inst cache config, i.e., {<config>|dl1|dl2|none}
-cache:il1lat               1 # l1 instruction cache hit latency (in cycles)
-cache:il2                dl2 # l2 instruction cache config, i.e., {<config>|dl2|none}
-cache:il2lat               2 # l2 instruction cache hit latency (in cycles)
-cache:flush            false # flush caches on system calls
-cache:icompress        false # convert 64-bit inst addresses to 32-bit inst equivalents
-mem:lat         103 1 # memory access latency (<first_chunk> <inter_chunk>)
-mem:width                  8 # memory access bus width (in bytes)
-tlb:itlb        itlb:16:4096:4:l # instruction TLB config, i.e., {<config>|none}
-tlb:dtlb        dtlb:32:4096:4:l # data TLB config, i.e., {<config>|none}
-tlb:lat                   30 # inst/data TLB miss latency (in cycles)
-res:ialu                   4 # total number of integer ALU's available
-res:imult                  1 # total number of integer multiplier/dividers available
-res:memport                2 # total number of memory system ports available (to CPU)
-res:fpalu                  4 # total number of floating point ALU's available
-res:fpmult                 1 # total number of floating point multiplier/dividers available
# -pcstat              <null> # profile stat(s) against text addr's (mult uses ok)
-bugcompat              false # operate in backward-compatible bugs mode (for testing only)

  Pipetrace range arguments are formatted as follows:

    {{@|#}<start>}:{{@|#|+}<end>}

  Both ends of the range are optional, if neither are specified, the entire
  execution is traced.  Ranges that start with a `@' designate an address
  range to be traced, those that start with an `#' designate a cycle count
  range.  All other range values represent an instruction count range.  The
  second argument, if specified with a `+', indicates a value relative
  to the first argument, e.g., 1000:+100 == 1000:1100.  Program symbols may
  be used in all contexts.

    Examples:   -ptrace FOO.trc #0:#1000
                -ptrace BAR.trc @2000:
                -ptrace BLAH.trc :1500
                -ptrace UXXE.trc :
                -ptrace FOOBAR.trc @main:+278

  Branch predictor configuration examples for 2-level predictor:
    Configurations:   N, M, W, X
      N   # entries in first level (# of shift register(s))
      W   width of shift register(s)
      M   # entries in 2nd level (# of counters, or other FSM)
      X   (yes-1/no-0) xor history and address for 2nd level index
    Sample predictors:
      GAg     : 1, W, 2^W, 0
      GAp     : 1, W, M (M > 2^W), 0
      PAg     : N, W, 2^W, 0
      PAp     : N, W, M (M == 2^(N+W)), 0
      gshare  : 1, W, 2^W, 1
  Predictor `comb' combines a bimodal and a 2-level predictor.

  The cache config parameter <config> has the following format:

    <name>:<nsets>:<bsize>:<assoc>:<repl>

    <name>   - name of the cache being defined
    <nsets>  - number of sets in the cache
    <bsize>  - block size of the cache
    <assoc>  - associativity of the cache
    <repl>   - block replacement strategy, 'l'-LRU, 'f'-FIFO, 'r'-random

    Examples:   -cache:dl1 dl1:4096:32:1:l
                -dtlb dtlb:128:4096:32:r

  Cache levels can be unified by pointing a level of the instruction cache
  hierarchy at the data cache hiearchy using the "dl1" and "dl2" cache
  configuration arguments.  Most sensible combinations are supported, e.g.,

    A unified l2 cache (il2 is pointed at dl2):
      -cache:il1 il1:128:64:1:l -cache:il2 dl2
      -cache:dl1 dl1:256:32:1:l -cache:dl2 ul2:1024:64:2:l

    Or, a fully unified cache hierarchy (il1 pointed at dl1):
      -cache:il1 dl1
      -cache:dl1 ul1:256:32:1:l -cache:dl2 ul2:1024:64:2:l



sim: ** starting performance simulation **

sim: ** simulation statistics **
sim_num_insn              100000002 # total number of instructions committed
sim_num_refs               45680045 # total number of loads and stores committed
sim_num_loads              29662892 # total number of loads committed
sim_num_stores         16017153.0000 # total number of stores committed
sim_num_branches            2494454 # total number of branches committed
sim_elapsed_time                126 # total simulation time in seconds
sim_inst_rate           793650.8095 # simulation speed (in insts/sec)
sim_total_insn            100000002 # total number of instructions executed
sim_total_refs             45680045 # total number of loads and stores executed
sim_total_loads            29662892 # total number of loads executed
sim_total_stores       16017153.0000 # total number of stores executed
sim_total_branches          2494454 # total number of branches executed
sim_cycle                  78501884 # total simulation time in cycles
sim_IPC                      1.2739 # instructions per cycle
sim_CPI                      0.7850 # cycles per instruction
sim_exec_BW                  1.2739 # total instructions (mis-spec + committed) per cycle
sim_IPB                     40.0889 # instruction per branch
IFQ_count                1185271622 # cumulative IFQ occupancy
IFQ_fcount                 71804860 # cumulative IFQ full count
ifq_occupancy               15.0986 # avg IFQ occupancy (insn's)
ifq_rate                     1.2739 # avg IFQ dispatch rate (insn/cycle)
ifq_latency                 11.8527 # avg IFQ occupant latency (cycle's)
ifq_full                     0.9147 # fraction of time (cycle's) IFQ was full
RUU_count                1482067064 # cumulative RUU occupancy
RUU_fcount                    93826 # cumulative RUU full count
ruu_occupancy               18.8794 # avg RUU occupancy (insn's)
ruu_rate                     1.2739 # avg RUU dispatch rate (insn/cycle)
ruu_latency                 14.8207 # avg RUU occupant latency (cycle's)
ruu_full                     0.0012 # fraction of time (cycle's) RUU was full
LSQ_count                 600265594 # cumulative LSQ occupancy
LSQ_fcount                 72681950 # cumulative LSQ full count
lsq_occupancy                7.6465 # avg LSQ occupancy (insn's)
lsq_rate                     1.2739 # avg LSQ dispatch rate (insn/cycle)
lsq_latency                  6.0027 # avg LSQ occupant latency (cycle's)
lsq_full                     0.9259 # fraction of time (cycle's) LSQ was full
sim_slip                 2228012655 # total number of slip cycles
avg_sim_slip                22.2801 # the average slip between issue and retirement
il1.accesses              123211502 # total number of accesses
il1.hits                  121219074 # total number of hits
il1.misses                  1992428 # total number of misses
il1.replacements            1992177 # total number of replacements
il1.writebacks                    0 # total number of writebacks
il1.invalidations                 0 # total number of invalidations
il1.miss_rate                0.0162 # miss rate (i.e., misses/ref)
il1.repl_rate                0.0162 # replacement rate (i.e., repls/ref)
il1.wb_rate                  0.0000 # writeback rate (i.e., wrbks/ref)
il1.inv_rate                 0.0000 # invalidation rate (i.e., invs/ref)
dl1.accesses               45009600 # total number of accesses
dl1.hits                   44481566 # total number of hits
dl1.misses                   528034 # total number of misses
dl1.replacements             527778 # total number of replacements
dl1.writebacks               299111 # total number of writebacks
dl1.invalidations                 0 # total number of invalidations
dl1.miss_rate                0.0117 # miss rate (i.e., misses/ref)
dl1.repl_rate                0.0117 # replacement rate (i.e., repls/ref)
dl1.wb_rate                  0.0066 # writeback rate (i.e., wrbks/ref)
dl1.inv_rate                 0.0000 # invalidation rate (i.e., invs/ref)
dl2.accesses                2819573 # total number of accesses
dl2.hits                    2470812 # total number of hits
dl2.misses                   348761 # total number of misses
dl2.replacements             346713 # total number of replacements
dl2.writebacks               181591 # total number of writebacks
dl2.invalidations                 0 # total number of invalidations
dl2.miss_rate                0.1237 # miss rate (i.e., misses/ref)
dl2.repl_rate                0.1230 # replacement rate (i.e., repls/ref)
dl2.wb_rate                  0.0644 # writeback rate (i.e., wrbks/ref)
dl2.inv_rate                 0.0000 # invalidation rate (i.e., invs/ref)
itlb.accesses             123211502 # total number of accesses
itlb.hits                 123211492 # total number of hits
itlb.misses                      10 # total number of misses
itlb.replacements                 0 # total number of replacements
itlb.writebacks                   0 # total number of writebacks
itlb.invalidations                0 # total number of invalidations
itlb.miss_rate               0.0000 # miss rate (i.e., misses/ref)
itlb.repl_rate               0.0000 # replacement rate (i.e., repls/ref)
itlb.wb_rate                 0.0000 # writeback rate (i.e., wrbks/ref)
itlb.inv_rate                0.0000 # invalidation rate (i.e., invs/ref)
dtlb.accesses              45680037 # total number of accesses
dtlb.hits                  45668544 # total number of hits
dtlb.misses                   11493 # total number of misses
dtlb.replacements             11365 # total number of replacements
dtlb.writebacks                   0 # total number of writebacks
dtlb.invalidations                0 # total number of invalidations
dtlb.miss_rate               0.0003 # miss rate (i.e., misses/ref)
dtlb.repl_rate               0.0002 # replacement rate (i.e., repls/ref)
dtlb.wb_rate                 0.0000 # writeback rate (i.e., wrbks/ref)
dtlb.inv_rate                0.0000 # invalidation rate (i.e., invs/ref)
rename_power           256757565.5987 # total power usage of rename unit
bpred_power            261920634.4183 # total power usage of bpred unit
window_power           3392539745.4619 # total power usage of instruction window
lsq_power              127430550.2460 # total power usage of load/store queue
regfile_power          1973438662.1838 # total power usage of arch. regfile
icache_power           238069852.2721 # total power usage of icache
dcache_power           505465629.4365 # total power usage of dcache
dcache2_power          243589522.4290 # total power usage of dcache2
alu_power              1486917957.1595 # total power usage of alu
falu_power             1121088934.7109 # total power usage of falu
resultbus_power        2459316138.8047 # total power usage of resultbus
clock_power            4106725746.5407 # total power usage of clock
avg_rename_power             3.2707 # avg power usage of rename unit
avg_bpred_power              3.3365 # avg power usage of bpred unit
avg_window_power            43.2160 # avg power usage of instruction window
avg_lsq_power                1.6233 # avg power usage of lsq
avg_regfile_power           25.1387 # avg power usage of arch. regfile
avg_icache_power             3.0327 # avg power usage of icache
avg_dcache_power             6.4389 # avg power usage of dcache
avg_dcache2_power            3.1030 # avg power usage of dcache2
avg_alu_power               18.9412 # avg power usage of alu
avg_falu_power              14.2810 # avg power usage of falu
avg_resultbus_power         31.3281 # avg power usage of resultbus
avg_clock_power             52.3137 # avg power usage of clock
fetch_stage_power      499990486.6904 # total power usage of fetch stage
dispatch_stage_power   256757565.5987 # total power usage of dispatch stage
issue_stage_power      8215259543.5376 # total power usage of issue stage
avg_fetch_power              6.3692 # average power of fetch unit per cycle
avg_dispatch_power           3.2707 # average power of dispatch unit per cycle
avg_issue_power            104.6505 # average power of issue unit per cycle
total_power            15052172004.5512 # total power per cycle
avg_total_power_cycle      191.7428 # average total power per cycle
avg_total_power_cycle_nofp_nod2     174.3588 # average total power per cycle
avg_total_power_insn       150.5217 # average total power per insn
avg_total_power_insn_nofp_nod2     136.8749 # average total power per insn
rename_power_cc1       70998968.5827 # total power usage of rename unit_cc1
bpred_power_cc1              0.0000 # total power usage of bpred unit_cc1
window_power_cc1       1799786806.7597 # total power usage of instruction window_cc1
lsq_power_cc1          22061258.7533 # total power usage of lsq_cc1
regfile_power_cc1      722692942.5891 # total power usage of arch. regfile_cc1
icache_power_cc1       66331143.9014 # total power usage of icache_cc1
dcache_power_cc1       180930524.2304 # total power usage of dcache_cc1
dcache2_power_cc1      7761460.2850 # total power usage of dcache2_cc1
alu_power_cc1          459587785.0149 # total power usage of alu_cc1
resultbus_power_cc1    1217888570.8086 # total power usage of resultbus_cc1
clock_power_cc1        1739117392.6095 # total power usage of clock_cc1
avg_rename_power_cc1         0.9044 # avg power usage of rename unit_cc1
avg_bpred_power_cc1          0.0000 # avg power usage of bpred unit_cc1
avg_window_power_cc1        22.9267 # avg power usage of instruction window_cc1
avg_lsq_power_cc1            0.2810 # avg power usage of lsq_cc1
avg_regfile_power_cc1        9.2061 # avg power usage of arch. regfile_cc1
avg_icache_power_cc1         0.8450 # avg power usage of icache_cc1
avg_dcache_power_cc1         2.3048 # avg power usage of dcache_cc1
avg_dcache2_power_cc1        0.0989 # avg power usage of dcache2_cc1
avg_alu_power_cc1            5.8545 # avg power usage of alu_cc1
avg_resultbus_power_cc1      15.5141 # avg power usage of resultbus_cc1
avg_clock_power_cc1         22.1538 # avg power usage of clock_cc1
fetch_stage_power_cc1  66331143.9014 # total power usage of fetch stage_cc1
dispatch_stage_power_cc1 70998968.5827 # total power usage of dispatch stage_cc1
issue_stage_power_cc1  3688016405.8519 # total power usage of issue stage_cc1
avg_fetch_power_cc1          0.8450 # average power of fetch unit per cycle_cc1
avg_dispatch_power_cc1       0.9044 # average power of dispatch unit per cycle_cc1
avg_issue_power_cc1         46.9800 # average power of issue unit per cycle_cc1
total_power_cycle_cc1  6287156853.5347 # total power per cycle_cc1
avg_total_power_cycle_cc1      80.0892 # average total power per cycle_cc1
avg_total_power_insn_cc1      62.8716 # average total power per insn_cc1
rename_power_cc2       20441991.1628 # total power usage of rename unit_cc2
bpred_power_cc2              0.0000 # total power usage of bpred unit_cc2
window_power_cc2       423730841.0785 # total power usage of instruction window_cc2
lsq_power_cc2          15523709.9048 # total power usage of lsq_cc2
regfile_power_cc2      91026364.9664 # total power usage of arch. regfile_cc2
icache_power_cc2       66331143.9014 # total power usage of icache_cc2
dcache_power_cc2       144906113.0020 # total power usage of dcache_cc2
dcache2_power_cc2      4374534.7631 # total power usage of dcache2_cc2
alu_power_cc2          199366998.7210 # total power usage of alu_cc2
resultbus_power_cc2    233434394.4338 # total power usage of resultbus_cc2
clock_power_cc2        457626870.4276 # total power usage of clock_cc2
avg_rename_power_cc2         0.2604 # avg power usage of rename unit_cc2
avg_bpred_power_cc2          0.0000 # avg power usage of bpred unit_cc2
avg_window_power_cc2         5.3977 # avg power usage of instruction window_cc2
avg_lsq_power_cc2            0.1977 # avg power usage of instruction lsq_cc2
avg_regfile_power_cc2        1.1595 # avg power usage of arch. regfile_cc2
avg_icache_power_cc2         0.8450 # avg power usage of icache_cc2
avg_dcache_power_cc2         1.8459 # avg power usage of dcache_cc2
avg_dcache2_power_cc2        0.0557 # avg power usage of dcache2_cc2
avg_alu_power_cc2            2.5396 # avg power usage of alu_cc2
avg_resultbus_power_cc2       2.9736 # avg power usage of resultbus_cc2
avg_clock_power_cc2          5.8295 # avg power usage of clock_cc2
fetch_stage_power_cc2  66331143.9014 # total power usage of fetch stage_cc2
dispatch_stage_power_cc2 20441991.1628 # total power usage of dispatch stage_cc2
issue_stage_power_cc2  1021336591.9031 # total power usage of issue stage_cc2
avg_fetch_power_cc2          0.8450 # average power of fetch unit per cycle_cc2
avg_dispatch_power_cc2       0.2604 # average power of dispatch unit per cycle_cc2
avg_issue_power_cc2         13.0103 # average power of issue unit per cycle_cc2
total_power_cycle_cc2  1656762962.3614 # total power per cycle_cc2
avg_total_power_cycle_cc2      21.1048 # average total power per cycle_cc2
avg_total_power_insn_cc2      16.5676 # average total power per insn_cc2
rename_power_cc3       39017850.9398 # total power usage of rename unit_cc3
bpred_power_cc3        26192063.4806 # total power usage of bpred unit_cc3
window_power_cc3       562595524.2081 # total power usage of instruction window_cc3
lsq_power_cc3          25871800.7428 # total power usage of lsq_cc3
regfile_power_cc3      207776339.5664 # total power usage of arch. regfile_cc3
icache_power_cc3       83505014.8612 # total power usage of icache_cc3
dcache_power_cc3       178089444.2273 # total power usage of dcache_cc3
dcache2_power_cc3      27960500.0858 # total power usage of dcache2_cc3
alu_power_cc3          302100015.4790 # total power usage of alu_cc3
resultbus_power_cc3    349457893.7641 # total power usage of resultbus_cc3
clock_power_cc3        680509477.1832 # total power usage of clock_cc3
avg_rename_power_cc3         0.4970 # avg power usage of rename unit_cc3
avg_bpred_power_cc3          0.3336 # avg power usage of bpred unit_cc3
avg_window_power_cc3         7.1666 # avg power usage of instruction window_cc3
avg_lsq_power_cc3            0.3296 # avg power usage of instruction lsq_cc3
avg_regfile_power_cc3        2.6468 # avg power usage of arch. regfile_cc3
avg_icache_power_cc3         1.0637 # avg power usage of icache_cc3
avg_dcache_power_cc3         2.2686 # avg power usage of dcache_cc3
avg_dcache2_power_cc3        0.3562 # avg power usage of dcache2_cc3
avg_alu_power_cc3            3.8483 # avg power usage of alu_cc3
avg_resultbus_power_cc3       4.4516 # avg power usage of resultbus_cc3
avg_clock_power_cc3          8.6687 # avg power usage of clock_cc3
fetch_stage_power_cc3  109697078.3418 # total power usage of fetch stage_cc3
dispatch_stage_power_cc3 39017850.9398 # total power usage of dispatch stage_cc3
issue_stage_power_cc3  1446075178.5071 # total power usage of issue stage_cc3
avg_fetch_power_cc3          1.3974 # average power of fetch unit per cycle_cc3
avg_dispatch_power_cc3       0.4970 # average power of dispatch unit per cycle_cc3
avg_issue_power_cc3         18.4209 # average power of issue unit per cycle_cc3
total_power_cycle_cc3  2483075924.5382 # total power per cycle_cc3
avg_total_power_cycle_cc3      31.6308 # average total power per cycle_cc3
avg_total_power_insn_cc3      24.8308 # average total power per insn_cc3
total_rename_access       100000002 # total number accesses of rename unit
total_bpred_access                0 # total number accesses of bpred unit
total_window_access       410753853 # total number accesses of instruction window
total_lsq_access           46350474 # total number accesses of load/store queue
total_regfile_access      197577073 # total number accesses of arch. regfile
total_icache_access       123211502 # total number accesses of icache
total_dcache_access        45009600 # total number accesses of dcache
total_dcache2_access        2819573 # total number accesses of dcache2
total_alu_access           99729989 # total number accesses of alu
total_resultbus_access    127168419 # total number accesses of resultbus
avg_rename_access            1.2739 # avg number accesses of rename unit
avg_bpred_access             0.0000 # avg number accesses of bpred unit
avg_window_access            5.2324 # avg number accesses of instruction window
avg_lsq_access               0.5904 # avg number accesses of lsq
avg_regfile_access           2.5168 # avg number accesses of arch. regfile
avg_icache_access            1.5695 # avg number accesses of icache
avg_dcache_access            0.5734 # avg number accesses of dcache
avg_dcache2_access           0.0359 # avg number accesses of dcache2
avg_alu_access               1.2704 # avg number accesses of alu
avg_resultbus_access         1.6199 # avg number accesses of resultbus
max_rename_access                16 # max number accesses of rename unit
max_bpred_access                  0 # max number accesses of bpred unit
max_window_access                33 # max number accesses of instruction window
max_lsq_access                    7 # max number accesses of load/store queue
max_regfile_access               40 # max number accesses of arch. regfile
max_icache_access                16 # max number accesses of icache
max_dcache_access                 4 # max number accesses of dcache
max_dcache2_access                5 # max number accesses of dcache2
max_alu_access                    9 # max number accesses of alu
max_resultbus_access             10 # max number accesses of resultbus
max_cycle_power_cc1        152.6473 # maximum cycle power usage of cc1
max_cycle_power_cc2         76.2926 # maximum cycle power usage of cc2
max_cycle_power_cc3         79.9298 # maximum cycle power usage of cc3
sim_invalid_addrs                 0 # total non-speculative bogus addresses seen (debug var)
ld_text_base           0x0120000000 # program text (code) segment base
ld_text_size                1867776 # program text (code) size in bytes
ld_data_base           0x0140000000 # program initialized data segment base
ld_data_size                 373328 # program init'ed `.data' and uninit'ed `.bss' size in bytes
ld_stack_base          0x011ff9b000 # program stack segment base (highest address in stack)
ld_stack_size                 16384 # program initial stack size
ld_prog_entry          0x0120069a70 # program entry point (initial PC)
ld_environ_base        0x011ff96440 # program environment base address address
ld_target_big_endian              0 # target executable endian-ness, non-zero if big endian
mem.page_count                13429 # total number of pages allocated
mem.page_mem                107432k # total size of memory pages allocated
mem.ptab_misses              283628 # total first level page table misses
mem.ptab_accesses        1181296156 # total page table accesses
mem.ptab_miss_rate           0.0002 # first level page table miss rate

