sim-outorder: SimpleScalar/Alpha Tool Set version 3.0 of August, 2003.
Copyright (c) 1994-2003 by Todd M. Austin, Ph.D. and SimpleScalar, LLC.
All Rights Reserved. This version of SimpleScalar is licensed for academic
non-commercial use.  No portion of this work may be used by any commercial
entity, or for any commercial purpose, without the prior written permission
of SimpleScalar, LLC (info@simplescalar.com).


Processor Parameters:
Issue Width: 16
Window Size: 64
Number of Virtual Registers: 32
Number of Physical Registers: 64
Datapath Width: 64
Total Power Consumption: 193.743
Branch Predictor Power Consumption: 3.33649  (1.74%)
 branch target buffer power (W): 2.49493
 local predict power (W): 0.574771
 global predict power (W): 0.0996078
 chooser power (W): 0.0702439
 RAS power (W): 0.0969383
Rename Logic Power Consumption: 3.27072  (1.71%)
 Instruction Decode Power (W): 0.0639661
 RAT decode_power (W): 0.454058
 RAT wordline_power (W): 0.227603
 RAT bitline_power (W): 2.30694
 DCL Comparators (W): 0.218151
Instruction Window Power Consumption: 43.216  (22.5%)
 tagdrive (W): 2.9395
 tagmatch (W): 0.989695
 Selection Logic (W): 0.225484
 decode_power (W): 0.976583
 wordline_power (W): 1.0557
 bitline_power (W): 37.0291
Load/Store Queue Power Consumption: 1.62328  (0.847%)
 tagdrive (W): 0.457232
 tagmatch (W): 0.100875
 decode_power (W): 0.00799577
 wordline_power (W): 0.0150119
 bitline_power (W): 1.04217
Arch. Register File Power Consumption: 25.1387  (13.1%)
 decode_power (W): 0.454058
 wordline_power (W): 1.0557
 bitline_power (W): 23.629
Result Bus Power Consumption: 31.3281  (16.3%)
Total Clock Power: 52.3137  (27.3%)
Int ALU Power: 4.66013  (2.43%)
FP ALU Power: 14.281  (7.45%)
Instruction Cache Power Consumption: 2.76773  (1.44%)
 decode_power (W): 0.151353
 wordline_power (W): 0.180479
 bitline_power (W): 1.42251
 senseamp_power (W): 0.768
 tagarray_power (W): 0.245382
Itlb_power (W): 0.264936 (0.138%)
Data Cache Power Consumption: 5.53546  (2.89%)
 decode_power (W): 0.302705
 wordline_power (W): 0.360958
 bitline_power (W): 2.84503
 senseamp_power (W): 1.536
 tagarray_power (W): 0.490764
Dtlb_power (W): 0.903441 (0.471%)
Level 2 Cache Power Consumption: 3.10298 (1.62%)
 decode_power (W): 0.19487
 wordline_power (W): 0.0430878
 bitline_power (W): 1.77274
 senseamp_power (W): 0.192
 tagarray_power (W): 0.900275
sim: loading EIO file: ../benchmarks/253.perlbmk.diffmail-ref.eio.gz
sim: command line: ./sim-outorder -config ../configs/current.config ../benchmarks/253.perlbmk.diffmail-ref.eio.gz 

sim: simulation started @ Tue Nov 24 11:16:31 2015, options follow:

sim-outorder: This simulator implements a very detailed out-of-order issue
superscalar processor with a two-level memory system and speculative
execution support.  This simulator is a performance simulator, tracking the
latency of all pipeline operations.

# -config                     # load configuration from a file
# -dumpconfig                 # dump configuration to a file
# -h                    false # print help message    
# -v                    false # verbose operation     
# -d                    false # enable debug message  
# -i                    false # start in Dlite debugger
-seed                       1 # random number generator seed (0 for timer seed)
# -q                    false # initialize and terminate immediately
# -chkpt               <null> # restore EIO trace execution from <fname>
# -redir:sim     ../results/19_17_width/253.perlbmk.diffmail-ref.eio.gz.out # redirect simulator output to file (non-interactive only)
# -redir:prog       /dev/null # redirect simulated program output to file
-nice                       0 # simulator scheduling priority
-freq            600000000.0000 # frequency             
-max:inst           100000000 # maximum number of inst's to execute
-fastfwd                    0 # number of insts skipped before timing starts
# -ptrace              <null> # generate pipetrace, i.e., <fname|stdout|stderr> <range>
-fetch:ifqsize             16 # instruction fetch queue size (in insts)
-fetch:mplat               15 # extra branch mis-prediction latency
-fetch:speed                1 # speed of front-end of machine relative to execution core
-bpred                perfect # branch predictor type {nottaken|taken|perfect|bimod|2lev|comb}
-bpred:bimod     2048 # bimodal predictor config (<table size>)
-bpred:2lev      1 16384 4 0 # 2-level predictor config (<l1size> <l2size> <hist_size> <xor>)
-bpred:comb      1024 # combining predictor config (<meta_table_size>)
-bpred:ras                  8 # return address stack size (0 for no return stack)
-bpred:btb       512 4 # BTB config (<num_sets> <associativity>)
# -bpred:spec_update       <null> # speculative predictors update in {ID|WB} (default non-spec)
-decode:width              16 # instruction decode B/W (insts/cycle)
-issue:width               16 # instruction issue B/W (insts/cycle)
-issue:inorder          false # run pipeline with in-order issue
-issue:wrongpath         true # issue instructions down wrong execution paths
-commit:width              16 # instruction commit B/W (insts/cycle)
-ruu:size                  64 # register update unit (RUU) size
-lsq:size                   8 # load/store queue (LSQ) size
-cache:dl1       dl1:32:64:8:f # l1 data cache config, i.e., {<config>|none}
-cache:dl1lat               1 # l1 data cache hit latency (in cycles)
-cache:dl2       dl2:256:64:8:f # l2 data cache config, i.e., {<config>|none}
-cache:dl2lat               2 # l2 data cache hit latency (in cycles)
-cache:il1       il1:32:64:8:f # l1 inst cache config, i.e., {<config>|dl1|dl2|none}
-cache:il1lat               1 # l1 instruction cache hit latency (in cycles)
-cache:il2                dl2 # l2 instruction cache config, i.e., {<config>|dl2|none}
-cache:il2lat               2 # l2 instruction cache hit latency (in cycles)
-cache:flush            false # flush caches on system calls
-cache:icompress        false # convert 64-bit inst addresses to 32-bit inst equivalents
-mem:lat         103 1 # memory access latency (<first_chunk> <inter_chunk>)
-mem:width                  8 # memory access bus width (in bytes)
-tlb:itlb        itlb:16:4096:4:l # instruction TLB config, i.e., {<config>|none}
-tlb:dtlb        dtlb:32:4096:4:l # data TLB config, i.e., {<config>|none}
-tlb:lat                   30 # inst/data TLB miss latency (in cycles)
-res:ialu                   4 # total number of integer ALU's available
-res:imult                  1 # total number of integer multiplier/dividers available
-res:memport                2 # total number of memory system ports available (to CPU)
-res:fpalu                  4 # total number of floating point ALU's available
-res:fpmult                 1 # total number of floating point multiplier/dividers available
# -pcstat              <null> # profile stat(s) against text addr's (mult uses ok)
-bugcompat              false # operate in backward-compatible bugs mode (for testing only)

  Pipetrace range arguments are formatted as follows:

    {{@|#}<start>}:{{@|#|+}<end>}

  Both ends of the range are optional, if neither are specified, the entire
  execution is traced.  Ranges that start with a `@' designate an address
  range to be traced, those that start with an `#' designate a cycle count
  range.  All other range values represent an instruction count range.  The
  second argument, if specified with a `+', indicates a value relative
  to the first argument, e.g., 1000:+100 == 1000:1100.  Program symbols may
  be used in all contexts.

    Examples:   -ptrace FOO.trc #0:#1000
                -ptrace BAR.trc @2000:
                -ptrace BLAH.trc :1500
                -ptrace UXXE.trc :
                -ptrace FOOBAR.trc @main:+278

  Branch predictor configuration examples for 2-level predictor:
    Configurations:   N, M, W, X
      N   # entries in first level (# of shift register(s))
      W   width of shift register(s)
      M   # entries in 2nd level (# of counters, or other FSM)
      X   (yes-1/no-0) xor history and address for 2nd level index
    Sample predictors:
      GAg     : 1, W, 2^W, 0
      GAp     : 1, W, M (M > 2^W), 0
      PAg     : N, W, 2^W, 0
      PAp     : N, W, M (M == 2^(N+W)), 0
      gshare  : 1, W, 2^W, 1
  Predictor `comb' combines a bimodal and a 2-level predictor.

  The cache config parameter <config> has the following format:

    <name>:<nsets>:<bsize>:<assoc>:<repl>

    <name>   - name of the cache being defined
    <nsets>  - number of sets in the cache
    <bsize>  - block size of the cache
    <assoc>  - associativity of the cache
    <repl>   - block replacement strategy, 'l'-LRU, 'f'-FIFO, 'r'-random

    Examples:   -cache:dl1 dl1:4096:32:1:l
                -dtlb dtlb:128:4096:32:r

  Cache levels can be unified by pointing a level of the instruction cache
  hierarchy at the data cache hiearchy using the "dl1" and "dl2" cache
  configuration arguments.  Most sensible combinations are supported, e.g.,

    A unified l2 cache (il2 is pointed at dl2):
      -cache:il1 il1:128:64:1:l -cache:il2 dl2
      -cache:dl1 dl1:256:32:1:l -cache:dl2 ul2:1024:64:2:l

    Or, a fully unified cache hierarchy (il1 pointed at dl1):
      -cache:il1 dl1
      -cache:dl1 ul1:256:32:1:l -cache:dl2 ul2:1024:64:2:l



sim: ** starting performance simulation **

sim: ** simulation statistics **
sim_num_insn              100000000 # total number of instructions committed
sim_num_refs               46161587 # total number of loads and stores committed
sim_num_loads              29759422 # total number of loads committed
sim_num_stores         16402165.0000 # total number of stores committed
sim_num_branches           14085061 # total number of branches committed
sim_elapsed_time                155 # total simulation time in seconds
sim_inst_rate           645161.2903 # simulation speed (in insts/sec)
sim_total_insn            100000000 # total number of instructions executed
sim_total_refs             46161587 # total number of loads and stores executed
sim_total_loads            29759422 # total number of loads executed
sim_total_stores       16402165.0000 # total number of stores executed
sim_total_branches         14085061 # total number of branches executed
sim_cycle                  84354824 # total simulation time in cycles
sim_IPC                      1.1855 # instructions per cycle
sim_CPI                      0.8435 # cycles per instruction
sim_exec_BW                  1.1855 # total instructions (mis-spec + committed) per cycle
sim_IPB                      7.0997 # instruction per branch
IFQ_count                 877912845 # cumulative IFQ occupancy
IFQ_fcount                 53424588 # cumulative IFQ full count
ifq_occupancy               10.4074 # avg IFQ occupancy (insn's)
ifq_rate                     1.1855 # avg IFQ dispatch rate (insn/cycle)
ifq_latency                  8.7791 # avg IFQ occupant latency (cycle's)
ifq_full                     0.6333 # fraction of time (cycle's) IFQ was full
RUU_count                 936578159 # cumulative RUU occupancy
RUU_fcount                    58722 # cumulative RUU full count
ruu_occupancy               11.1028 # avg RUU occupancy (insn's)
ruu_rate                     1.1855 # avg RUU dispatch rate (insn/cycle)
ruu_latency                  9.3658 # avg RUU occupant latency (cycle's)
ruu_full                     0.0007 # fraction of time (cycle's) RUU was full
LSQ_count                 439000577 # cumulative LSQ occupancy
LSQ_fcount                 46235735 # cumulative LSQ full count
lsq_occupancy                5.2042 # avg LSQ occupancy (insn's)
lsq_rate                     1.1855 # avg LSQ dispatch rate (insn/cycle)
lsq_latency                  4.3900 # avg LSQ occupant latency (cycle's)
lsq_full                     0.5481 # fraction of time (cycle's) LSQ was full
sim_slip                 1521740239 # total number of slip cycles
avg_sim_slip                15.2174 # the average slip between issue and retirement
il1.accesses              207778799 # total number of accesses
il1.hits                  206180279 # total number of hits
il1.misses                  1598520 # total number of misses
il1.replacements            1598264 # total number of replacements
il1.writebacks                    0 # total number of writebacks
il1.invalidations                 0 # total number of invalidations
il1.miss_rate                0.0077 # miss rate (i.e., misses/ref)
il1.repl_rate                0.0077 # replacement rate (i.e., repls/ref)
il1.wb_rate                  0.0000 # writeback rate (i.e., wrbks/ref)
il1.inv_rate                 0.0000 # invalidation rate (i.e., invs/ref)
dl1.accesses               45590651 # total number of accesses
dl1.hits                   44818103 # total number of hits
dl1.misses                   772548 # total number of misses
dl1.replacements             772292 # total number of replacements
dl1.writebacks               349434 # total number of writebacks
dl1.invalidations                 0 # total number of invalidations
dl1.miss_rate                0.0169 # miss rate (i.e., misses/ref)
dl1.repl_rate                0.0169 # replacement rate (i.e., repls/ref)
dl1.wb_rate                  0.0077 # writeback rate (i.e., wrbks/ref)
dl1.inv_rate                 0.0000 # invalidation rate (i.e., invs/ref)
dl2.accesses                2720502 # total number of accesses
dl2.hits                    2199367 # total number of hits
dl2.misses                   521135 # total number of misses
dl2.replacements             519087 # total number of replacements
dl2.writebacks               109611 # total number of writebacks
dl2.invalidations                 0 # total number of invalidations
dl2.miss_rate                0.1916 # miss rate (i.e., misses/ref)
dl2.repl_rate                0.1908 # replacement rate (i.e., repls/ref)
dl2.wb_rate                  0.0403 # writeback rate (i.e., wrbks/ref)
dl2.inv_rate                 0.0000 # invalidation rate (i.e., invs/ref)
itlb.accesses             207778799 # total number of accesses
itlb.hits                 207776207 # total number of hits
itlb.misses                    2592 # total number of misses
itlb.replacements              2533 # total number of replacements
itlb.writebacks                   0 # total number of writebacks
itlb.invalidations                0 # total number of invalidations
itlb.miss_rate               0.0000 # miss rate (i.e., misses/ref)
itlb.repl_rate               0.0000 # replacement rate (i.e., repls/ref)
itlb.wb_rate                 0.0000 # writeback rate (i.e., wrbks/ref)
itlb.inv_rate                0.0000 # invalidation rate (i.e., invs/ref)
dtlb.accesses              46161580 # total number of accesses
dtlb.hits                  46134071 # total number of hits
dtlb.misses                   27509 # total number of misses
dtlb.replacements             27382 # total number of replacements
dtlb.writebacks                   0 # total number of writebacks
dtlb.invalidations                0 # total number of invalidations
dtlb.miss_rate               0.0006 # miss rate (i.e., misses/ref)
dtlb.repl_rate               0.0006 # replacement rate (i.e., repls/ref)
dtlb.wb_rate                 0.0000 # writeback rate (i.e., wrbks/ref)
dtlb.inv_rate                0.0000 # invalidation rate (i.e., invs/ref)
rename_power           275900884.8234 # total power usage of rename unit
bpred_power            281448901.6243 # total power usage of bpred unit
window_power           3645480574.0065 # total power usage of instruction window
lsq_power              136931511.6078 # total power usage of load/store queue
regfile_power          2120574214.7964 # total power usage of arch. regfile
icache_power           255819853.7566 # total power usage of icache
dcache_power           543152113.6031 # total power usage of dcache
dcache2_power          261751059.2806 # total power usage of dcache2
alu_power              1597779520.6611 # total power usage of alu
falu_power             1204675033.9992 # total power usage of falu
resultbus_power        2642677721.7151 # total power usage of resultbus
clock_power            4412914822.2905 # total power usage of clock
avg_rename_power             3.2707 # avg power usage of rename unit
avg_bpred_power              3.3365 # avg power usage of bpred unit
avg_window_power            43.2160 # avg power usage of instruction window
avg_lsq_power                1.6233 # avg power usage of lsq
avg_regfile_power           25.1387 # avg power usage of arch. regfile
avg_icache_power             3.0327 # avg power usage of icache
avg_dcache_power             6.4389 # avg power usage of dcache
avg_dcache2_power            3.1030 # avg power usage of dcache2
avg_alu_power               18.9412 # avg power usage of alu
avg_falu_power              14.2810 # avg power usage of falu
avg_resultbus_power         31.3281 # avg power usage of resultbus
avg_clock_power             52.3137 # avg power usage of clock
fetch_stage_power      537268755.3809 # total power usage of fetch stage
dispatch_stage_power   275900884.8234 # total power usage of dispatch stage
issue_stage_power      8827772500.8742 # total power usage of issue stage
avg_fetch_power              6.3692 # average power of fetch unit per cycle
avg_dispatch_power           3.2707 # average power of dispatch unit per cycle
avg_issue_power            104.6505 # average power of issue unit per cycle
total_power            16174431178.1655 # total power per cycle
avg_total_power_cycle      191.7428 # average total power per cycle
avg_total_power_cycle_nofp_nod2     174.3588 # average total power per cycle
avg_total_power_insn       161.7443 # average total power per insn
avg_total_power_insn_nofp_nod2     147.0801 # average total power per insn
rename_power_cc1       84324958.4203 # total power usage of rename unit_cc1
bpred_power_cc1              0.0000 # total power usage of bpred unit_cc1
window_power_cc1       1536582277.6297 # total power usage of instruction window_cc1
lsq_power_cc1          22936939.6386 # total power usage of lsq_cc1
regfile_power_cc1      730003628.5217 # total power usage of arch. regfile_cc1
icache_power_cc1       79289223.6811 # total power usage of icache_cc1
dcache_power_cc1       184692028.6772 # total power usage of dcache_cc1
dcache2_power_cc1      7181920.4163 # total power usage of dcache2_cc1
alu_power_cc1          165932586.1738 # total power usage of alu_cc1
resultbus_power_cc1    1099161814.8685 # total power usage of resultbus_cc1
clock_power_cc1        1500430448.3043 # total power usage of clock_cc1
avg_rename_power_cc1         0.9996 # avg power usage of rename unit_cc1
avg_bpred_power_cc1          0.0000 # avg power usage of bpred unit_cc1
avg_window_power_cc1        18.2157 # avg power usage of instruction window_cc1
avg_lsq_power_cc1            0.2719 # avg power usage of lsq_cc1
avg_regfile_power_cc1        8.6540 # avg power usage of arch. regfile_cc1
avg_icache_power_cc1         0.9399 # avg power usage of icache_cc1
avg_dcache_power_cc1         2.1895 # avg power usage of dcache_cc1
avg_dcache2_power_cc1        0.0851 # avg power usage of dcache2_cc1
avg_alu_power_cc1            1.9671 # avg power usage of alu_cc1
avg_resultbus_power_cc1      13.0302 # avg power usage of resultbus_cc1
avg_clock_power_cc1         17.7871 # avg power usage of clock_cc1
fetch_stage_power_cc1  79289223.6811 # total power usage of fetch stage_cc1
dispatch_stage_power_cc1 84324958.4203 # total power usage of dispatch stage_cc1
issue_stage_power_cc1  3016487567.4041 # total power usage of issue stage_cc1
avg_fetch_power_cc1          0.9399 # average power of fetch unit per cycle_cc1
avg_dispatch_power_cc1       0.9996 # average power of dispatch unit per cycle_cc1
avg_issue_power_cc1         35.7595 # average power of issue unit per cycle_cc1
total_power_cycle_cc1  5410535826.3315 # total power per cycle_cc1
avg_total_power_cycle_cc1      64.1402 # average total power per cycle_cc1
avg_total_power_insn_cc1      54.1054 # average total power per insn_cc1
rename_power_cc2       20441990.7532 # total power usage of rename unit_cc2
bpred_power_cc2              0.0000 # total power usage of bpred unit_cc2
window_power_cc2       409532797.1356 # total power usage of instruction window_cc2
lsq_power_cc2          16168411.3636 # total power usage of lsq_cc2
regfile_power_cc2      66494315.1738 # total power usage of arch. regfile_cc2
icache_power_cc2       79289223.6811 # total power usage of icache_cc2
dcache_power_cc2       146776777.0836 # total power usage of dcache_cc2
dcache2_power_cc2      4220827.2572 # total power usage of dcache2_cc2
alu_power_cc2          116736877.5740 # total power usage of alu_cc2
resultbus_power_cc2    212335515.8089 # total power usage of resultbus_cc2
clock_power_cc2        410797378.7424 # total power usage of clock_cc2
avg_rename_power_cc2         0.2423 # avg power usage of rename unit_cc2
avg_bpred_power_cc2          0.0000 # avg power usage of bpred unit_cc2
avg_window_power_cc2         4.8549 # avg power usage of instruction window_cc2
avg_lsq_power_cc2            0.1917 # avg power usage of instruction lsq_cc2
avg_regfile_power_cc2        0.7883 # avg power usage of arch. regfile_cc2
avg_icache_power_cc2         0.9399 # avg power usage of icache_cc2
avg_dcache_power_cc2         1.7400 # avg power usage of dcache_cc2
avg_dcache2_power_cc2        0.0500 # avg power usage of dcache2_cc2
avg_alu_power_cc2            1.3839 # avg power usage of alu_cc2
avg_resultbus_power_cc2       2.5172 # avg power usage of resultbus_cc2
avg_clock_power_cc2          4.8699 # avg power usage of clock_cc2
fetch_stage_power_cc2  79289223.6811 # total power usage of fetch stage_cc2
dispatch_stage_power_cc2 20441990.7532 # total power usage of dispatch stage_cc2
issue_stage_power_cc2  905771206.2230 # total power usage of issue stage_cc2
avg_fetch_power_cc2          0.9399 # average power of fetch unit per cycle_cc2
avg_dispatch_power_cc2       0.2423 # average power of dispatch unit per cycle_cc2
avg_issue_power_cc2         10.7376 # average power of issue unit per cycle_cc2
total_power_cycle_cc2  1482794114.5735 # total power per cycle_cc2
avg_total_power_cycle_cc2      17.5781 # average total power per cycle_cc2
avg_total_power_insn_cc2      14.8279 # average total power per insn_cc2
rename_power_cc3       39599583.4720 # total power usage of rename unit_cc3
bpred_power_cc3        28144890.1983 # total power usage of bpred unit_cc3
window_power_cc3       603046445.0323 # total power usage of instruction window_cc3
lsq_power_cc3          27510069.1796 # total power usage of lsq_cc3
regfile_power_cc3      196715071.0480 # total power usage of arch. regfile_cc3
icache_power_cc3       96942286.8245 # total power usage of icache_cc3
dcache_power_cc3       183840500.5887 # total power usage of dcache_cc3
dcache2_power_cc3      29683780.4274 # total power usage of dcache2_cc3
alu_power_cc3          259921570.2973 # total power usage of alu_cc3
resultbus_power_cc3    359359360.7950 # total power usage of resultbus_cc3
clock_power_cc3        689601806.1325 # total power usage of clock_cc3
avg_rename_power_cc3         0.4694 # avg power usage of rename unit_cc3
avg_bpred_power_cc3          0.3336 # avg power usage of bpred unit_cc3
avg_window_power_cc3         7.1489 # avg power usage of instruction window_cc3
avg_lsq_power_cc3            0.3261 # avg power usage of instruction lsq_cc3
avg_regfile_power_cc3        2.3320 # avg power usage of arch. regfile_cc3
avg_icache_power_cc3         1.1492 # avg power usage of icache_cc3
avg_dcache_power_cc3         2.1794 # avg power usage of dcache_cc3
avg_dcache2_power_cc3        0.3519 # avg power usage of dcache2_cc3
avg_alu_power_cc3            3.0813 # avg power usage of alu_cc3
avg_resultbus_power_cc3       4.2601 # avg power usage of resultbus_cc3
avg_clock_power_cc3          8.1750 # avg power usage of clock_cc3
fetch_stage_power_cc3  125087177.0228 # total power usage of fetch stage_cc3
dispatch_stage_power_cc3 39599583.4720 # total power usage of dispatch stage_cc3
issue_stage_power_cc3  1463361726.3202 # total power usage of issue stage_cc3
avg_fetch_power_cc3          1.4829 # average power of fetch unit per cycle_cc3
avg_dispatch_power_cc3       0.4694 # average power of dispatch unit per cycle_cc3
avg_issue_power_cc3         17.3477 # average power of issue unit per cycle_cc3
total_power_cycle_cc3  2514365363.9955 # total power per cycle_cc3
avg_total_power_cycle_cc3      29.8070 # average total power per cycle_cc3
avg_total_power_insn_cc3      25.1437 # average total power per insn_cc3
total_rename_access       100000000 # total number accesses of rename unit
total_bpred_access                0 # total number accesses of bpred unit
total_window_access       394405408 # total number accesses of instruction window
total_lsq_access           46732511 # total number accesses of load/store queue
total_regfile_access      143622645 # total number accesses of arch. regfile
total_icache_access       207778799 # total number accesses of icache
total_dcache_access        45590651 # total number accesses of dcache
total_dcache2_access        2720502 # total number accesses of dcache2
total_alu_access           99999297 # total number accesses of alu
total_resultbus_access    115674350 # total number accesses of resultbus
avg_rename_access            1.1855 # avg number accesses of rename unit
avg_bpred_access             0.0000 # avg number accesses of bpred unit
avg_window_access            4.6756 # avg number accesses of instruction window
avg_lsq_access               0.5540 # avg number accesses of lsq
avg_regfile_access           1.7026 # avg number accesses of arch. regfile
avg_icache_access            2.4632 # avg number accesses of icache
avg_dcache_access            0.5405 # avg number accesses of dcache
avg_dcache2_access           0.0323 # avg number accesses of dcache2
avg_alu_access               1.1855 # avg number accesses of alu
avg_resultbus_access         1.3713 # avg number accesses of resultbus
max_rename_access                16 # max number accesses of rename unit
max_bpred_access                  0 # max number accesses of bpred unit
max_window_access                32 # max number accesses of instruction window
max_lsq_access                    6 # max number accesses of load/store queue
max_regfile_access               30 # max number accesses of arch. regfile
max_icache_access                16 # max number accesses of icache
max_dcache_access                 4 # max number accesses of dcache
max_dcache2_access                7 # max number accesses of dcache2
max_alu_access                    6 # max number accesses of alu
max_resultbus_access              8 # max number accesses of resultbus
max_cycle_power_cc1        147.7753 # maximum cycle power usage of cc1
max_cycle_power_cc2         64.1976 # maximum cycle power usage of cc2
max_cycle_power_cc3         69.1948 # maximum cycle power usage of cc3
sim_invalid_addrs                 0 # total non-speculative bogus addresses seen (debug var)
ld_text_base           0x0120000000 # program text (code) segment base
ld_text_size                 876544 # program text (code) size in bytes
ld_data_base           0x0140000000 # program initialized data segment base
ld_data_size                 131616 # program init'ed `.data' and uninit'ed `.bss' size in bytes
ld_stack_base          0x011ff9b000 # program stack segment base (highest address in stack)
ld_stack_size                 16384 # program initial stack size
ld_prog_entry          0x01200b4d58 # program entry point (initial PC)
ld_environ_base        0x011ff96b80 # program environment base address address
ld_target_big_endian              0 # target executable endian-ness, non-zero if big endian
mem.page_count                 4996 # total number of pages allocated
mem.page_mem                 39968k # total size of memory pages allocated
mem.ptab_misses              173706 # total first level page table misses
mem.ptab_accesses        1105861850 # total page table accesses
mem.ptab_miss_rate           0.0002 # first level page table miss rate

