sim-outorder: SimpleScalar/Alpha Tool Set version 3.0 of August, 2003.
Copyright (c) 1994-2003 by Todd M. Austin, Ph.D. and SimpleScalar, LLC.
All Rights Reserved. This version of SimpleScalar is licensed for academic
non-commercial use.  No portion of this work may be used by any commercial
entity, or for any commercial purpose, without the prior written permission
of SimpleScalar, LLC (info@simplescalar.com).


Processor Parameters:
Issue Width: 16
Window Size: 64
Number of Virtual Registers: 32
Number of Physical Registers: 64
Datapath Width: 64
Total Power Consumption: 193.743
Branch Predictor Power Consumption: 3.33649  (1.74%)
 branch target buffer power (W): 2.49493
 local predict power (W): 0.574771
 global predict power (W): 0.0996078
 chooser power (W): 0.0702439
 RAS power (W): 0.0969383
Rename Logic Power Consumption: 3.27072  (1.71%)
 Instruction Decode Power (W): 0.0639661
 RAT decode_power (W): 0.454058
 RAT wordline_power (W): 0.227603
 RAT bitline_power (W): 2.30694
 DCL Comparators (W): 0.218151
Instruction Window Power Consumption: 43.216  (22.5%)
 tagdrive (W): 2.9395
 tagmatch (W): 0.989695
 Selection Logic (W): 0.225484
 decode_power (W): 0.976583
 wordline_power (W): 1.0557
 bitline_power (W): 37.0291
Load/Store Queue Power Consumption: 1.62328  (0.847%)
 tagdrive (W): 0.457232
 tagmatch (W): 0.100875
 decode_power (W): 0.00799577
 wordline_power (W): 0.0150119
 bitline_power (W): 1.04217
Arch. Register File Power Consumption: 25.1387  (13.1%)
 decode_power (W): 0.454058
 wordline_power (W): 1.0557
 bitline_power (W): 23.629
Result Bus Power Consumption: 31.3281  (16.3%)
Total Clock Power: 52.3137  (27.3%)
Int ALU Power: 4.66013  (2.43%)
FP ALU Power: 14.281  (7.45%)
Instruction Cache Power Consumption: 2.76773  (1.44%)
 decode_power (W): 0.151353
 wordline_power (W): 0.180479
 bitline_power (W): 1.42251
 senseamp_power (W): 0.768
 tagarray_power (W): 0.245382
Itlb_power (W): 0.264936 (0.138%)
Data Cache Power Consumption: 5.53546  (2.89%)
 decode_power (W): 0.302705
 wordline_power (W): 0.360958
 bitline_power (W): 2.84503
 senseamp_power (W): 1.536
 tagarray_power (W): 0.490764
Dtlb_power (W): 0.903441 (0.471%)
Level 2 Cache Power Consumption: 3.10298 (1.62%)
 decode_power (W): 0.19487
 wordline_power (W): 0.0430878
 bitline_power (W): 1.77274
 senseamp_power (W): 0.192
 tagarray_power (W): 0.900275
sim: loading EIO file: ../benchmarks/253.perlbmk.makerand-ref.eio.gz
sim: command line: ./sim-outorder -config ../configs/current.config ../benchmarks/253.perlbmk.makerand-ref.eio.gz 

sim: simulation started @ Tue Nov 24 11:16:29 2015, options follow:

sim-outorder: This simulator implements a very detailed out-of-order issue
superscalar processor with a two-level memory system and speculative
execution support.  This simulator is a performance simulator, tracking the
latency of all pipeline operations.

# -config                     # load configuration from a file
# -dumpconfig                 # dump configuration to a file
# -h                    false # print help message    
# -v                    false # verbose operation     
# -d                    false # enable debug message  
# -i                    false # start in Dlite debugger
-seed                       1 # random number generator seed (0 for timer seed)
# -q                    false # initialize and terminate immediately
# -chkpt               <null> # restore EIO trace execution from <fname>
# -redir:sim     ../results/19_17_width/253.perlbmk.makerand-ref.eio.gz.out # redirect simulator output to file (non-interactive only)
# -redir:prog       /dev/null # redirect simulated program output to file
-nice                       0 # simulator scheduling priority
-freq            600000000.0000 # frequency             
-max:inst           100000000 # maximum number of inst's to execute
-fastfwd                    0 # number of insts skipped before timing starts
# -ptrace              <null> # generate pipetrace, i.e., <fname|stdout|stderr> <range>
-fetch:ifqsize             16 # instruction fetch queue size (in insts)
-fetch:mplat               15 # extra branch mis-prediction latency
-fetch:speed                1 # speed of front-end of machine relative to execution core
-bpred                perfect # branch predictor type {nottaken|taken|perfect|bimod|2lev|comb}
-bpred:bimod     2048 # bimodal predictor config (<table size>)
-bpred:2lev      1 16384 4 0 # 2-level predictor config (<l1size> <l2size> <hist_size> <xor>)
-bpred:comb      1024 # combining predictor config (<meta_table_size>)
-bpred:ras                  8 # return address stack size (0 for no return stack)
-bpred:btb       512 4 # BTB config (<num_sets> <associativity>)
# -bpred:spec_update       <null> # speculative predictors update in {ID|WB} (default non-spec)
-decode:width              16 # instruction decode B/W (insts/cycle)
-issue:width               16 # instruction issue B/W (insts/cycle)
-issue:inorder          false # run pipeline with in-order issue
-issue:wrongpath         true # issue instructions down wrong execution paths
-commit:width              16 # instruction commit B/W (insts/cycle)
-ruu:size                  64 # register update unit (RUU) size
-lsq:size                   8 # load/store queue (LSQ) size
-cache:dl1       dl1:32:64:8:f # l1 data cache config, i.e., {<config>|none}
-cache:dl1lat               1 # l1 data cache hit latency (in cycles)
-cache:dl2       dl2:256:64:8:f # l2 data cache config, i.e., {<config>|none}
-cache:dl2lat               2 # l2 data cache hit latency (in cycles)
-cache:il1       il1:32:64:8:f # l1 inst cache config, i.e., {<config>|dl1|dl2|none}
-cache:il1lat               1 # l1 instruction cache hit latency (in cycles)
-cache:il2                dl2 # l2 instruction cache config, i.e., {<config>|dl2|none}
-cache:il2lat               2 # l2 instruction cache hit latency (in cycles)
-cache:flush            false # flush caches on system calls
-cache:icompress        false # convert 64-bit inst addresses to 32-bit inst equivalents
-mem:lat         103 1 # memory access latency (<first_chunk> <inter_chunk>)
-mem:width                  8 # memory access bus width (in bytes)
-tlb:itlb        itlb:16:4096:4:l # instruction TLB config, i.e., {<config>|none}
-tlb:dtlb        dtlb:32:4096:4:l # data TLB config, i.e., {<config>|none}
-tlb:lat                   30 # inst/data TLB miss latency (in cycles)
-res:ialu                   4 # total number of integer ALU's available
-res:imult                  1 # total number of integer multiplier/dividers available
-res:memport                2 # total number of memory system ports available (to CPU)
-res:fpalu                  4 # total number of floating point ALU's available
-res:fpmult                 1 # total number of floating point multiplier/dividers available
# -pcstat              <null> # profile stat(s) against text addr's (mult uses ok)
-bugcompat              false # operate in backward-compatible bugs mode (for testing only)

  Pipetrace range arguments are formatted as follows:

    {{@|#}<start>}:{{@|#|+}<end>}

  Both ends of the range are optional, if neither are specified, the entire
  execution is traced.  Ranges that start with a `@' designate an address
  range to be traced, those that start with an `#' designate a cycle count
  range.  All other range values represent an instruction count range.  The
  second argument, if specified with a `+', indicates a value relative
  to the first argument, e.g., 1000:+100 == 1000:1100.  Program symbols may
  be used in all contexts.

    Examples:   -ptrace FOO.trc #0:#1000
                -ptrace BAR.trc @2000:
                -ptrace BLAH.trc :1500
                -ptrace UXXE.trc :
                -ptrace FOOBAR.trc @main:+278

  Branch predictor configuration examples for 2-level predictor:
    Configurations:   N, M, W, X
      N   # entries in first level (# of shift register(s))
      W   width of shift register(s)
      M   # entries in 2nd level (# of counters, or other FSM)
      X   (yes-1/no-0) xor history and address for 2nd level index
    Sample predictors:
      GAg     : 1, W, 2^W, 0
      GAp     : 1, W, M (M > 2^W), 0
      PAg     : N, W, 2^W, 0
      PAp     : N, W, M (M == 2^(N+W)), 0
      gshare  : 1, W, 2^W, 1
  Predictor `comb' combines a bimodal and a 2-level predictor.

  The cache config parameter <config> has the following format:

    <name>:<nsets>:<bsize>:<assoc>:<repl>

    <name>   - name of the cache being defined
    <nsets>  - number of sets in the cache
    <bsize>  - block size of the cache
    <assoc>  - associativity of the cache
    <repl>   - block replacement strategy, 'l'-LRU, 'f'-FIFO, 'r'-random

    Examples:   -cache:dl1 dl1:4096:32:1:l
                -dtlb dtlb:128:4096:32:r

  Cache levels can be unified by pointing a level of the instruction cache
  hierarchy at the data cache hiearchy using the "dl1" and "dl2" cache
  configuration arguments.  Most sensible combinations are supported, e.g.,

    A unified l2 cache (il2 is pointed at dl2):
      -cache:il1 il1:128:64:1:l -cache:il2 dl2
      -cache:dl1 dl1:256:32:1:l -cache:dl2 ul2:1024:64:2:l

    Or, a fully unified cache hierarchy (il1 pointed at dl1):
      -cache:il1 dl1
      -cache:dl1 ul1:256:32:1:l -cache:dl2 ul2:1024:64:2:l



sim: ** starting performance simulation **

sim: ** simulation statistics **
sim_num_insn              100000007 # total number of instructions committed
sim_num_refs               40095830 # total number of loads and stores committed
sim_num_loads              29946759 # total number of loads committed
sim_num_stores         10149071.0000 # total number of stores committed
sim_num_branches           13420684 # total number of branches committed
sim_elapsed_time                106 # total simulation time in seconds
sim_inst_rate           943396.2925 # simulation speed (in insts/sec)
sim_total_insn            100000007 # total number of instructions executed
sim_total_refs             40095830 # total number of loads and stores executed
sim_total_loads            29946759 # total number of loads executed
sim_total_stores       10149071.0000 # total number of stores executed
sim_total_branches         13420684 # total number of branches executed
sim_cycle                  47747023 # total simulation time in cycles
sim_IPC                      2.0944 # instructions per cycle
sim_CPI                      0.4775 # cycles per instruction
sim_exec_BW                  2.0944 # total instructions (mis-spec + committed) per cycle
sim_IPB                      7.4512 # instruction per branch
IFQ_count                 743773427 # cumulative IFQ occupancy
IFQ_fcount                 46467947 # cumulative IFQ full count
ifq_occupancy               15.5774 # avg IFQ occupancy (insn's)
ifq_rate                     2.0944 # avg IFQ dispatch rate (insn/cycle)
ifq_latency                  7.4377 # avg IFQ occupant latency (cycle's)
ifq_full                     0.9732 # fraction of time (cycle's) IFQ was full
RUU_count                1280955324 # cumulative RUU occupancy
RUU_fcount                  7240016 # cumulative RUU full count
ruu_occupancy               26.8280 # avg RUU occupancy (insn's)
ruu_rate                     2.0944 # avg RUU dispatch rate (insn/cycle)
ruu_latency                 12.8096 # avg RUU occupant latency (cycle's)
ruu_full                     0.1516 # fraction of time (cycle's) RUU was full
LSQ_count                 301344665 # cumulative LSQ occupancy
LSQ_fcount                 28944657 # cumulative LSQ full count
lsq_occupancy                6.3113 # avg LSQ occupancy (insn's)
lsq_rate                     2.0944 # avg LSQ dispatch rate (insn/cycle)
lsq_latency                  3.0134 # avg LSQ occupant latency (cycle's)
lsq_full                     0.6062 # fraction of time (cycle's) LSQ was full
sim_slip                 1722395360 # total number of slip cycles
avg_sim_slip                17.2240 # the average slip between issue and retirement
il1.accesses              226002078 # total number of accesses
il1.hits                  225978706 # total number of hits
il1.misses                    23372 # total number of misses
il1.replacements              23119 # total number of replacements
il1.writebacks                    0 # total number of writebacks
il1.invalidations                 0 # total number of invalidations
il1.miss_rate                0.0001 # miss rate (i.e., misses/ref)
il1.repl_rate                0.0001 # replacement rate (i.e., repls/ref)
il1.wb_rate                  0.0000 # writeback rate (i.e., wrbks/ref)
il1.inv_rate                 0.0000 # invalidation rate (i.e., invs/ref)
dl1.accesses               38429165 # total number of accesses
dl1.hits                   38336525 # total number of hits
dl1.misses                    92640 # total number of misses
dl1.replacements              92384 # total number of replacements
dl1.writebacks                 7451 # total number of writebacks
dl1.invalidations                 0 # total number of invalidations
dl1.miss_rate                0.0024 # miss rate (i.e., misses/ref)
dl1.repl_rate                0.0024 # replacement rate (i.e., repls/ref)
dl1.wb_rate                  0.0002 # writeback rate (i.e., wrbks/ref)
dl1.inv_rate                 0.0000 # invalidation rate (i.e., invs/ref)
dl2.accesses                 123463 # total number of accesses
dl2.hits                      51430 # total number of hits
dl2.misses                    72033 # total number of misses
dl2.replacements              69985 # total number of replacements
dl2.writebacks                 1480 # total number of writebacks
dl2.invalidations                 0 # total number of invalidations
dl2.miss_rate                0.5834 # miss rate (i.e., misses/ref)
dl2.repl_rate                0.5668 # replacement rate (i.e., repls/ref)
dl2.wb_rate                  0.0120 # writeback rate (i.e., wrbks/ref)
dl2.inv_rate                 0.0000 # invalidation rate (i.e., invs/ref)
itlb.accesses             226002078 # total number of accesses
itlb.hits                 226002048 # total number of hits
itlb.misses                      30 # total number of misses
itlb.replacements                 0 # total number of replacements
itlb.writebacks                   0 # total number of writebacks
itlb.invalidations                0 # total number of invalidations
itlb.miss_rate               0.0000 # miss rate (i.e., misses/ref)
itlb.repl_rate               0.0000 # replacement rate (i.e., repls/ref)
itlb.wb_rate                 0.0000 # writeback rate (i.e., wrbks/ref)
itlb.inv_rate                0.0000 # invalidation rate (i.e., invs/ref)
dtlb.accesses              40095830 # total number of accesses
dtlb.hits                  40063873 # total number of hits
dtlb.misses                   31957 # total number of misses
dtlb.replacements             31829 # total number of replacements
dtlb.writebacks                   0 # total number of writebacks
dtlb.invalidations                0 # total number of invalidations
dtlb.miss_rate               0.0008 # miss rate (i.e., misses/ref)
dtlb.repl_rate               0.0008 # replacement rate (i.e., repls/ref)
dtlb.wb_rate                 0.0000 # writeback rate (i.e., wrbks/ref)
dtlb.inv_rate                0.0000 # invalidation rate (i.e., invs/ref)
rename_power           156167072.3023 # total power usage of rename unit
bpred_power            159307393.9071 # total power usage of bpred unit
window_power           2063436760.7884 # total power usage of instruction window
lsq_power              77506794.7863 # total power usage of load/store queue
regfile_power          1200300125.1821 # total power usage of arch. regfile
icache_power           144800686.9626 # total power usage of icache
dcache_power           307438213.7915 # total power usage of dcache
dcache2_power          148157903.2058 # total power usage of dcache2
alu_power              904384738.6855 # total power usage of alu
falu_power             681877382.0307 # total power usage of falu
resultbus_power        1495824282.7158 # total power usage of resultbus
clock_power            2497824493.9281 # total power usage of clock
avg_rename_power             3.2707 # avg power usage of rename unit
avg_bpred_power              3.3365 # avg power usage of bpred unit
avg_window_power            43.2160 # avg power usage of instruction window
avg_lsq_power                1.6233 # avg power usage of lsq
avg_regfile_power           25.1387 # avg power usage of arch. regfile
avg_icache_power             3.0327 # avg power usage of icache
avg_dcache_power             6.4389 # avg power usage of dcache
avg_dcache2_power            3.1030 # avg power usage of dcache2
avg_alu_power               18.9412 # avg power usage of alu
avg_falu_power              14.2810 # avg power usage of falu
avg_resultbus_power         31.3281 # avg power usage of resultbus
avg_clock_power             52.3137 # avg power usage of clock
fetch_stage_power      304108080.8697 # total power usage of fetch stage
dispatch_stage_power   156167072.3023 # total power usage of dispatch stage
issue_stage_power      4996748693.9734 # total power usage of issue stage
avg_fetch_power              6.3692 # average power of fetch unit per cycle
avg_dispatch_power           3.2707 # average power of dispatch unit per cycle
avg_issue_power            104.6505 # average power of issue unit per cycle
total_power            9155148466.2555 # total power per cycle
avg_total_power_cycle      191.7428 # average total power per cycle
avg_total_power_cycle_nofp_nod2     174.3588 # average total power per cycle
avg_total_power_insn        91.5515 # average total power per insn
avg_total_power_insn_nofp_nod2      83.2511 # average total power per insn
rename_power_cc1       90594157.1946 # total power usage of rename unit_cc1
bpred_power_cc1              0.0000 # total power usage of bpred unit_cc1
window_power_cc1       1578251740.5639 # total power usage of instruction window_cc1
lsq_power_cc1          20006325.2263 # total power usage of lsq_cc1
regfile_power_cc1      769409842.4852 # total power usage of arch. regfile_cc1
icache_power_cc1       84012492.0212 # total power usage of icache_cc1
dcache_power_cc1       159607849.3195 # total power usage of dcache_cc1
dcache2_power_cc1       356693.3859 # total power usage of dcache2_cc1
alu_power_cc1          192490973.8394 # total power usage of alu_cc1
resultbus_power_cc1    1161994610.3709 # total power usage of resultbus_cc1
clock_power_cc1        1547372144.7896 # total power usage of clock_cc1
avg_rename_power_cc1         1.8974 # avg power usage of rename unit_cc1
avg_bpred_power_cc1          0.0000 # avg power usage of bpred unit_cc1
avg_window_power_cc1        33.0545 # avg power usage of instruction window_cc1
avg_lsq_power_cc1            0.4190 # avg power usage of lsq_cc1
avg_regfile_power_cc1       16.1143 # avg power usage of arch. regfile_cc1
avg_icache_power_cc1         1.7595 # avg power usage of icache_cc1
avg_dcache_power_cc1         3.3428 # avg power usage of dcache_cc1
avg_dcache2_power_cc1        0.0075 # avg power usage of dcache2_cc1
avg_alu_power_cc1            4.0315 # avg power usage of alu_cc1
avg_resultbus_power_cc1      24.3365 # avg power usage of resultbus_cc1
avg_clock_power_cc1         32.4077 # avg power usage of clock_cc1
fetch_stage_power_cc1  84012492.0212 # total power usage of fetch stage_cc1
dispatch_stage_power_cc1 90594157.1946 # total power usage of dispatch stage_cc1
issue_stage_power_cc1  3112708192.7059 # total power usage of issue stage_cc1
avg_fetch_power_cc1          1.7595 # average power of fetch unit per cycle_cc1
avg_dispatch_power_cc1       1.8974 # average power of dispatch unit per cycle_cc1
avg_issue_power_cc1         65.1917 # average power of issue unit per cycle_cc1
total_power_cycle_cc1  5604096829.1963 # total power per cycle_cc1
avg_total_power_cycle_cc1     117.3706 # average total power per cycle_cc1
avg_total_power_insn_cc1      56.0410 # average total power per insn_cc1
rename_power_cc2       20441992.1835 # total power usage of rename unit_cc2
bpred_power_cc2              0.0000 # total power usage of bpred unit_cc2
window_power_cc2       398889871.7157 # total power usage of instruction window_cc2
lsq_power_cc2          13774290.7882 # total power usage of lsq_cc2
regfile_power_cc2      59675142.1772 # total power usage of arch. regfile_cc2
icache_power_cc2       84012492.0212 # total power usage of icache_cc2
dcache_power_cc2       123720737.9212 # total power usage of dcache_cc2
dcache2_power_cc2       191551.4106 # total power usage of dcache2_cc2
alu_power_cc2          120826256.7381 # total power usage of alu_cc2
resultbus_power_cc2    213898910.5667 # total power usage of resultbus_cc2
clock_power_cc2        394877176.3304 # total power usage of clock_cc2
avg_rename_power_cc2         0.4281 # avg power usage of rename unit_cc2
avg_bpred_power_cc2          0.0000 # avg power usage of bpred unit_cc2
avg_window_power_cc2         8.3542 # avg power usage of instruction window_cc2
avg_lsq_power_cc2            0.2885 # avg power usage of instruction lsq_cc2
avg_regfile_power_cc2        1.2498 # avg power usage of arch. regfile_cc2
avg_icache_power_cc2         1.7595 # avg power usage of icache_cc2
avg_dcache_power_cc2         2.5912 # avg power usage of dcache_cc2
avg_dcache2_power_cc2        0.0040 # avg power usage of dcache2_cc2
avg_alu_power_cc2            2.5306 # avg power usage of alu_cc2
avg_resultbus_power_cc2       4.4798 # avg power usage of resultbus_cc2
avg_clock_power_cc2          8.2702 # avg power usage of clock_cc2
fetch_stage_power_cc2  84012492.0212 # total power usage of fetch stage_cc2
dispatch_stage_power_cc2 20441992.1835 # total power usage of dispatch stage_cc2
issue_stage_power_cc2  871301619.1405 # total power usage of issue stage_cc2
avg_fetch_power_cc2          1.7595 # average power of fetch unit per cycle_cc2
avg_dispatch_power_cc2       0.4281 # average power of dispatch unit per cycle_cc2
avg_issue_power_cc2         18.2483 # average power of issue unit per cycle_cc2
total_power_cycle_cc2  1430308421.8528 # total power per cycle_cc2
avg_total_power_cycle_cc2      29.9560 # average total power per cycle_cc2
avg_total_power_insn_cc2      14.3031 # average total power per insn_cc2
rename_power_cc3       26999283.7172 # total power usage of rename unit_cc3
bpred_power_cc3        15930739.3884 # total power usage of bpred unit_cc3
window_power_cc3       429203546.5935 # total power usage of instruction window_cc3
lsq_power_cc3          19420455.3282 # total power usage of lsq_cc3
regfile_power_cc3      94206327.4883 # total power usage of arch. regfile_cc3
icache_power_cc3       90091311.5461 # total power usage of icache_cc3
dcache_power_cc3       139426645.4699 # total power usage of dcache_cc3
dcache2_power_cc3      14971701.8846 # total power usage of dcache2_cc3
alu_power_cc3          192015632.9367 # total power usage of alu_cc3
resultbus_power_cc3    239535246.8104 # total power usage of resultbus_cc3
clock_power_cc3        477070285.3821 # total power usage of clock_cc3
avg_rename_power_cc3         0.5655 # avg power usage of rename unit_cc3
avg_bpred_power_cc3          0.3336 # avg power usage of bpred unit_cc3
avg_window_power_cc3         8.9891 # avg power usage of instruction window_cc3
avg_lsq_power_cc3            0.4067 # avg power usage of instruction lsq_cc3
avg_regfile_power_cc3        1.9730 # avg power usage of arch. regfile_cc3
avg_icache_power_cc3         1.8868 # avg power usage of icache_cc3
avg_dcache_power_cc3         2.9201 # avg power usage of dcache_cc3
avg_dcache2_power_cc3        0.3136 # avg power usage of dcache2_cc3
avg_alu_power_cc3            4.0215 # avg power usage of alu_cc3
avg_resultbus_power_cc3       5.0168 # avg power usage of resultbus_cc3
avg_clock_power_cc3          9.9916 # avg power usage of clock_cc3
fetch_stage_power_cc3  106022050.9344 # total power usage of fetch stage_cc3
dispatch_stage_power_cc3 26999283.7172 # total power usage of dispatch stage_cc3
issue_stage_power_cc3  1034573229.0232 # total power usage of issue stage_cc3
avg_fetch_power_cc3          2.2205 # average power of fetch unit per cycle_cc3
avg_dispatch_power_cc3       0.5655 # average power of dispatch unit per cycle_cc3
avg_issue_power_cc3         21.6678 # average power of issue unit per cycle_cc3
total_power_cycle_cc3  1738871176.5453 # total power per cycle_cc3
avg_total_power_cycle_cc3      36.4184 # average total power per cycle_cc3
avg_total_power_insn_cc3      17.3887 # average total power per insn_cc3
total_rename_access       100000007 # total number accesses of rename unit
total_bpred_access                0 # total number accesses of bpred unit
total_window_access       378842745 # total number accesses of instruction window
total_lsq_access           41762495 # total number accesses of load/store queue
total_regfile_access      127631380 # total number accesses of arch. regfile
total_icache_access       226002078 # total number accesses of icache
total_dcache_access        38429165 # total number accesses of dcache
total_dcache2_access         123463 # total number accesses of dcache2
total_alu_access           99999365 # total number accesses of alu
total_resultbus_access    116526043 # total number accesses of resultbus
avg_rename_access            2.0944 # avg number accesses of rename unit
avg_bpred_access             0.0000 # avg number accesses of bpred unit
avg_window_access            7.9344 # avg number accesses of instruction window
avg_lsq_access               0.8747 # avg number accesses of lsq
avg_regfile_access           2.6731 # avg number accesses of arch. regfile
avg_icache_access            4.7333 # avg number accesses of icache
avg_dcache_access            0.8048 # avg number accesses of dcache
avg_dcache2_access           0.0026 # avg number accesses of dcache2
avg_alu_access               2.0944 # avg number accesses of alu
avg_resultbus_access         2.4405 # avg number accesses of resultbus
max_rename_access                16 # max number accesses of rename unit
max_bpred_access                  0 # max number accesses of bpred unit
max_window_access                36 # max number accesses of instruction window
max_lsq_access                    5 # max number accesses of load/store queue
max_regfile_access               28 # max number accesses of arch. regfile
max_icache_access                16 # max number accesses of icache
max_dcache_access                 4 # max number accesses of dcache
max_dcache2_access                4 # max number accesses of dcache2
max_alu_access                    7 # max number accesses of alu
max_resultbus_access              8 # max number accesses of resultbus
max_cycle_power_cc1        160.8397 # maximum cycle power usage of cc1
max_cycle_power_cc2         74.7167 # maximum cycle power usage of cc2
max_cycle_power_cc3         78.2844 # maximum cycle power usage of cc3
sim_invalid_addrs                 0 # total non-speculative bogus addresses seen (debug var)
ld_text_base           0x0120000000 # program text (code) segment base
ld_text_size                 876544 # program text (code) size in bytes
ld_data_base           0x0140000000 # program initialized data segment base
ld_data_size                 131616 # program init'ed `.data' and uninit'ed `.bss' size in bytes
ld_stack_base          0x011ff9b000 # program stack segment base (highest address in stack)
ld_stack_size                 16384 # program initial stack size
ld_prog_entry          0x0120067d78 # program entry point (initial PC)
ld_environ_base        0x011ff96c80 # program environment base address address
ld_target_big_endian              0 # target executable endian-ness, non-zero if big endian
mem.page_count                 1161 # total number of pages allocated
mem.page_mem                  9288k # total size of memory pages allocated
mem.ptab_misses                2407 # total first level page table misses
mem.ptab_accesses        1053435404 # total page table accesses
mem.ptab_miss_rate           0.0000 # first level page table miss rate

