sim-outorder: SimpleScalar/Alpha Tool Set version 3.0 of August, 2003.
Copyright (c) 1994-2003 by Todd M. Austin, Ph.D. and SimpleScalar, LLC.
All Rights Reserved. This version of SimpleScalar is licensed for academic
non-commercial use.  No portion of this work may be used by any commercial
entity, or for any commercial purpose, without the prior written permission
of SimpleScalar, LLC (info@simplescalar.com).


Processor Parameters:
Issue Width: 4
Window Size: 16
Number of Virtual Registers: 32
Number of Physical Registers: 16
Datapath Width: 64
Total Power Consumption: 45.994
Branch Predictor Power Consumption: 3.33649  (7.58%)
 branch target buffer power (W): 2.49493
 local predict power (W): 0.574771
 global predict power (W): 0.0996078
 chooser power (W): 0.0702439
 RAS power (W): 0.0969383
Rename Logic Power Consumption: 0.417965  (0.95%)
 Instruction Decode Power (W): 0.0159915
 RAT decode_power (W): 0.113514
 RAT wordline_power (W): 0.0307815
 RAT bitline_power (W): 0.246771
 DCL Comparators (W): 0.0109075
Instruction Window Power Consumption: 2.20432  (5.01%)
 tagdrive (W): 0.0943488
 tagmatch (W): 0.033695
 Selection Logic (W): 0.0134217
 decode_power (W): 0.0532503
 wordline_power (W): 0.0844643
 bitline_power (W): 1.92514
Load/Store Queue Power Consumption: 0.4302  (0.978%)
 tagdrive (W): 0.220308
 tagmatch (W): 0.0487252
 decode_power (W): 0.00399788
 wordline_power (W): 0.00584427
 bitline_power (W): 0.151325
Arch. Register File Power Consumption: 3.57247  (8.12%)
 decode_power (W): 0.113514
 wordline_power (W): 0.0844643
 bitline_power (W): 3.37449
Result Bus Power Consumption: 0.885119  (2.01%)
Total Clock Power: 19.0573  (43.3%)
Int ALU Power: 1.16503  (2.65%)
FP ALU Power: 3.57026  (8.12%)
Instruction Cache Power Consumption: 2.76773  (6.29%)
 decode_power (W): 0.151353
 wordline_power (W): 0.180479
 bitline_power (W): 1.42251
 senseamp_power (W): 0.768
 tagarray_power (W): 0.245382
Itlb_power (W): 0.264834 (0.602%)
Data Cache Power Consumption: 2.76773  (6.29%)
 decode_power (W): 0.151353
 wordline_power (W): 0.180479
 bitline_power (W): 1.42251
 senseamp_power (W): 0.768
 tagarray_power (W): 0.245382
Dtlb_power (W): 0.451619 (1.03%)
Level 2 Cache Power Consumption: 3.10298 (7.05%)
 decode_power (W): 0.19487
 wordline_power (W): 0.0430878
 bitline_power (W): 1.77274
 senseamp_power (W): 0.192
 tagarray_power (W): 0.900275
sim: loading EIO file: ../benchmarks/171.swim.spec_ref.eio.gz
sim: command line: ./sim-outorder -config ../configs/current.config ../benchmarks/171.swim.spec_ref.eio.gz 

sim: simulation started @ Mon Nov 23 20:41:02 2015, options follow:

sim-outorder: This simulator implements a very detailed out-of-order issue
superscalar processor with a two-level memory system and speculative
execution support.  This simulator is a performance simulator, tracking the
latency of all pipeline operations.

# -config                     # load configuration from a file
# -dumpconfig                 # dump configuration to a file
# -h                    false # print help message    
# -v                    false # verbose operation     
# -d                    false # enable debug message  
# -i                    false # start in Dlite debugger
-seed                       1 # random number generator seed (0 for timer seed)
# -q                    false # initialize and terminate immediately
# -chkpt               <null> # restore EIO trace execution from <fname>
# -redir:sim     ../results/11_01_min_fus/171.swim.spec_ref.eio.gz.out # redirect simulator output to file (non-interactive only)
# -redir:prog       /dev/null # redirect simulated program output to file
-nice                       0 # simulator scheduling priority
-freq            600000000.0000 # frequency             
-max:inst           100000000 # maximum number of inst's to execute
-fastfwd                    0 # number of insts skipped before timing starts
# -ptrace              <null> # generate pipetrace, i.e., <fname|stdout|stderr> <range>
-fetch:ifqsize              4 # instruction fetch queue size (in insts)
-fetch:mplat                3 # extra branch mis-prediction latency
-fetch:speed                1 # speed of front-end of machine relative to execution core
-bpred                perfect # branch predictor type {nottaken|taken|perfect|bimod|2lev|comb}
-bpred:bimod     2048 # bimodal predictor config (<table size>)
-bpred:2lev      1 16384 4 0 # 2-level predictor config (<l1size> <l2size> <hist_size> <xor>)
-bpred:comb      1024 # combining predictor config (<meta_table_size>)
-bpred:ras                  8 # return address stack size (0 for no return stack)
-bpred:btb       512 4 # BTB config (<num_sets> <associativity>)
# -bpred:spec_update       <null> # speculative predictors update in {ID|WB} (default non-spec)
-decode:width               4 # instruction decode B/W (insts/cycle)
-issue:width                4 # instruction issue B/W (insts/cycle)
-issue:inorder          false # run pipeline with in-order issue
-issue:wrongpath         true # issue instructions down wrong execution paths
-commit:width               4 # instruction commit B/W (insts/cycle)
-ruu:size                  16 # register update unit (RUU) size
-lsq:size                   8 # load/store queue (LSQ) size
-cache:dl1       dl1:32:64:8:f # l1 data cache config, i.e., {<config>|none}
-cache:dl1lat               1 # l1 data cache hit latency (in cycles)
-cache:dl2       dl2:256:64:8:f # l2 data cache config, i.e., {<config>|none}
-cache:dl2lat               2 # l2 data cache hit latency (in cycles)
-cache:il1       il1:32:64:8:f # l1 inst cache config, i.e., {<config>|dl1|dl2|none}
-cache:il1lat               1 # l1 instruction cache hit latency (in cycles)
-cache:il2                dl2 # l2 instruction cache config, i.e., {<config>|dl2|none}
-cache:il2lat               2 # l2 instruction cache hit latency (in cycles)
-cache:flush            false # flush caches on system calls
-cache:icompress        false # convert 64-bit inst addresses to 32-bit inst equivalents
-mem:lat         103 1 # memory access latency (<first_chunk> <inter_chunk>)
-mem:width                  8 # memory access bus width (in bytes)
-tlb:itlb        itlb:16:4096:4:l # instruction TLB config, i.e., {<config>|none}
-tlb:dtlb        dtlb:32:4096:4:l # data TLB config, i.e., {<config>|none}
-tlb:lat                   30 # inst/data TLB miss latency (in cycles)
-res:ialu                   1 # total number of integer ALU's available
-res:imult                  1 # total number of integer multiplier/dividers available
-res:memport                1 # total number of memory system ports available (to CPU)
-res:fpalu                  1 # total number of floating point ALU's available
-res:fpmult                 1 # total number of floating point multiplier/dividers available
# -pcstat              <null> # profile stat(s) against text addr's (mult uses ok)
-bugcompat              false # operate in backward-compatible bugs mode (for testing only)

  Pipetrace range arguments are formatted as follows:

    {{@|#}<start>}:{{@|#|+}<end>}

  Both ends of the range are optional, if neither are specified, the entire
  execution is traced.  Ranges that start with a `@' designate an address
  range to be traced, those that start with an `#' designate a cycle count
  range.  All other range values represent an instruction count range.  The
  second argument, if specified with a `+', indicates a value relative
  to the first argument, e.g., 1000:+100 == 1000:1100.  Program symbols may
  be used in all contexts.

    Examples:   -ptrace FOO.trc #0:#1000
                -ptrace BAR.trc @2000:
                -ptrace BLAH.trc :1500
                -ptrace UXXE.trc :
                -ptrace FOOBAR.trc @main:+278

  Branch predictor configuration examples for 2-level predictor:
    Configurations:   N, M, W, X
      N   # entries in first level (# of shift register(s))
      W   width of shift register(s)
      M   # entries in 2nd level (# of counters, or other FSM)
      X   (yes-1/no-0) xor history and address for 2nd level index
    Sample predictors:
      GAg     : 1, W, 2^W, 0
      GAp     : 1, W, M (M > 2^W), 0
      PAg     : N, W, 2^W, 0
      PAp     : N, W, M (M == 2^(N+W)), 0
      gshare  : 1, W, 2^W, 1
  Predictor `comb' combines a bimodal and a 2-level predictor.

  The cache config parameter <config> has the following format:

    <name>:<nsets>:<bsize>:<assoc>:<repl>

    <name>   - name of the cache being defined
    <nsets>  - number of sets in the cache
    <bsize>  - block size of the cache
    <assoc>  - associativity of the cache
    <repl>   - block replacement strategy, 'l'-LRU, 'f'-FIFO, 'r'-random

    Examples:   -cache:dl1 dl1:4096:32:1:l
                -dtlb dtlb:128:4096:32:r

  Cache levels can be unified by pointing a level of the instruction cache
  hierarchy at the data cache hiearchy using the "dl1" and "dl2" cache
  configuration arguments.  Most sensible combinations are supported, e.g.,

    A unified l2 cache (il2 is pointed at dl2):
      -cache:il1 il1:128:64:1:l -cache:il2 dl2
      -cache:dl1 dl1:256:32:1:l -cache:dl2 ul2:1024:64:2:l

    Or, a fully unified cache hierarchy (il1 pointed at dl1):
      -cache:il1 dl1
      -cache:dl1 ul1:256:32:1:l -cache:dl2 ul2:1024:64:2:l



sim: ** starting performance simulation **

sim: ** simulation statistics **
sim_num_insn              100000002 # total number of instructions committed
sim_num_refs               34465204 # total number of loads and stores committed
sim_num_loads              27296927 # total number of loads committed
sim_num_stores         7168277.0000 # total number of stores committed
sim_num_branches            2149555 # total number of branches committed
sim_elapsed_time                163 # total simulation time in seconds
sim_inst_rate           613496.9448 # simulation speed (in insts/sec)
sim_total_insn            100000002 # total number of instructions executed
sim_total_refs             34465204 # total number of loads and stores executed
sim_total_loads            27296927 # total number of loads executed
sim_total_stores       7168277.0000 # total number of stores executed
sim_total_branches          2149555 # total number of branches executed
sim_cycle                 248707659 # total simulation time in cycles
sim_IPC                      0.4021 # instructions per cycle
sim_CPI                      2.4871 # cycles per instruction
sim_exec_BW                  0.4021 # total instructions (mis-spec + committed) per cycle
sim_IPB                     46.5213 # instruction per branch
IFQ_count                 994455722 # cumulative IFQ occupancy
IFQ_fcount                248610965 # cumulative IFQ full count
ifq_occupancy                3.9985 # avg IFQ occupancy (insn's)
ifq_rate                     0.4021 # avg IFQ dispatch rate (insn/cycle)
ifq_latency                  9.9446 # avg IFQ occupant latency (cycle's)
ifq_full                     0.9996 # fraction of time (cycle's) IFQ was full
RUU_count                3913758461 # cumulative RUU occupancy
RUU_fcount                207290850 # cumulative RUU full count
ruu_occupancy               15.7364 # avg RUU occupancy (insn's)
ruu_rate                     0.4021 # avg RUU dispatch rate (insn/cycle)
ruu_latency                 39.1376 # avg RUU occupant latency (cycle's)
ruu_full                     0.8335 # fraction of time (cycle's) RUU was full
LSQ_count                1488343327 # cumulative LSQ occupancy
LSQ_fcount                 48320314 # cumulative LSQ full count
lsq_occupancy                5.9843 # avg LSQ occupancy (insn's)
lsq_rate                     0.4021 # avg LSQ dispatch rate (insn/cycle)
lsq_latency                 14.8834 # avg LSQ occupant latency (cycle's)
lsq_full                     0.1943 # fraction of time (cycle's) LSQ was full
sim_slip                 5536566902 # total number of slip cycles
avg_sim_slip                55.3657 # the average slip between issue and retirement
il1.accesses              101359206 # total number of accesses
il1.hits                  101354824 # total number of hits
il1.misses                     4382 # total number of misses
il1.replacements               4126 # total number of replacements
il1.writebacks                    0 # total number of writebacks
il1.invalidations                 0 # total number of invalidations
il1.miss_rate                0.0000 # miss rate (i.e., misses/ref)
il1.repl_rate                0.0000 # replacement rate (i.e., repls/ref)
il1.wb_rate                  0.0000 # writeback rate (i.e., wrbks/ref)
il1.inv_rate                 0.0000 # invalidation rate (i.e., invs/ref)
dl1.accesses               34465184 # total number of accesses
dl1.hits                   31523915 # total number of hits
dl1.misses                  2941269 # total number of misses
dl1.replacements            2941013 # total number of replacements
dl1.writebacks               862411 # total number of writebacks
dl1.invalidations                 0 # total number of invalidations
dl1.miss_rate                0.0853 # miss rate (i.e., misses/ref)
dl1.repl_rate                0.0853 # replacement rate (i.e., repls/ref)
dl1.wb_rate                  0.0250 # writeback rate (i.e., wrbks/ref)
dl1.inv_rate                 0.0000 # invalidation rate (i.e., invs/ref)
dl2.accesses                3808062 # total number of accesses
dl2.hits                     871706 # total number of hits
dl2.misses                  2936356 # total number of misses
dl2.replacements            2934308 # total number of replacements
dl2.writebacks               858420 # total number of writebacks
dl2.invalidations                 0 # total number of invalidations
dl2.miss_rate                0.7711 # miss rate (i.e., misses/ref)
dl2.repl_rate                0.7706 # replacement rate (i.e., repls/ref)
dl2.wb_rate                  0.2254 # writeback rate (i.e., wrbks/ref)
dl2.inv_rate                 0.0000 # invalidation rate (i.e., invs/ref)
itlb.accesses             101359206 # total number of accesses
itlb.hits                 101359174 # total number of hits
itlb.misses                      32 # total number of misses
itlb.replacements                 0 # total number of replacements
itlb.writebacks                   0 # total number of writebacks
itlb.invalidations                0 # total number of invalidations
itlb.miss_rate               0.0000 # miss rate (i.e., misses/ref)
itlb.repl_rate               0.0000 # replacement rate (i.e., repls/ref)
itlb.wb_rate                 0.0000 # writeback rate (i.e., wrbks/ref)
itlb.inv_rate                0.0000 # invalidation rate (i.e., invs/ref)
dtlb.accesses              34465200 # total number of accesses
dtlb.hits                  34419024 # total number of hits
dtlb.misses                   46176 # total number of misses
dtlb.replacements             46048 # total number of replacements
dtlb.writebacks                   0 # total number of writebacks
dtlb.invalidations                0 # total number of invalidations
dtlb.miss_rate               0.0013 # miss rate (i.e., misses/ref)
dtlb.repl_rate               0.0013 # replacement rate (i.e., repls/ref)
dtlb.wb_rate                 0.0000 # writeback rate (i.e., wrbks/ref)
dtlb.inv_rate                0.0000 # invalidation rate (i.e., invs/ref)
rename_power           103951217.7274 # total power usage of rename unit
bpred_power            829810247.6972 # total power usage of bpred unit
window_power           548231122.3273 # total power usage of instruction window
lsq_power              106994081.9940 # total power usage of load/store queue
regfile_power          888501172.1598 # total power usage of arch. regfile
icache_power           754221658.8873 # total power usage of icache
dcache_power           800676473.3499 # total power usage of dcache
dcache2_power          771734093.0731 # total power usage of dcache2
alu_power              1177703851.4696 # total power usage of alu
falu_power             887951314.9853 # total power usage of falu
resultbus_power        220135870.4130 # total power usage of resultbus
clock_power            4739687354.0653 # total power usage of clock
avg_rename_power             0.4180 # avg power usage of rename unit
avg_bpred_power              3.3365 # avg power usage of bpred unit
avg_window_power             2.2043 # avg power usage of instruction window
avg_lsq_power                0.4302 # avg power usage of lsq
avg_regfile_power            3.5725 # avg power usage of arch. regfile
avg_icache_power             3.0326 # avg power usage of icache
avg_dcache_power             3.2193 # avg power usage of dcache
avg_dcache2_power            3.1030 # avg power usage of dcache2
avg_alu_power                4.7353 # avg power usage of alu
avg_falu_power               3.5703 # avg power usage of falu
avg_resultbus_power          0.8851 # avg power usage of resultbus
avg_clock_power             19.0573 # avg power usage of clock
fetch_stage_power      1584031906.5846 # total power usage of fetch stage
dispatch_stage_power   103951217.7274 # total power usage of dispatch stage
issue_stage_power      3625475492.6270 # total power usage of issue stage
avg_fetch_power              6.3691 # average power of fetch unit per cycle
avg_dispatch_power           0.4180 # average power of dispatch unit per cycle
avg_issue_power             14.5773 # average power of issue unit per cycle
total_power            10941647143.1640 # total power per cycle
avg_total_power_cycle       43.9940 # average total power per cycle
avg_total_power_cycle_nofp_nod2      37.3208 # average total power per cycle
avg_total_power_insn       109.4165 # average total power per insn
avg_total_power_insn_nofp_nod2      92.8196 # average total power per insn
rename_power_cc1       15339967.4145 # total power usage of rename unit_cc1
bpred_power_cc1              0.0000 # total power usage of bpred unit_cc1
window_power_cc1       129075227.4298 # total power usage of instruction window_cc1
lsq_power_cc1          8371520.9349 # total power usage of lsq_cc1
regfile_power_cc1      116137267.4100 # total power usage of arch. regfile_cc1
icache_power_cc1       111301960.2066 # total power usage of icache_cc1
dcache_power_cc1       110955417.4958 # total power usage of dcache_cc1
dcache2_power_cc1      11816327.9327 # total power usage of dcache2_cc1
alu_power_cc1          194532453.5023 # total power usage of alu_cc1
resultbus_power_cc1    49854361.8090 # total power usage of resultbus_cc1
clock_power_cc1        747511586.6297 # total power usage of clock_cc1
avg_rename_power_cc1         0.0617 # avg power usage of rename unit_cc1
avg_bpred_power_cc1          0.0000 # avg power usage of bpred unit_cc1
avg_window_power_cc1         0.5190 # avg power usage of instruction window_cc1
avg_lsq_power_cc1            0.0337 # avg power usage of lsq_cc1
avg_regfile_power_cc1        0.4670 # avg power usage of arch. regfile_cc1
avg_icache_power_cc1         0.4475 # avg power usage of icache_cc1
avg_dcache_power_cc1         0.4461 # avg power usage of dcache_cc1
avg_dcache2_power_cc1        0.0475 # avg power usage of dcache2_cc1
avg_alu_power_cc1            0.7822 # avg power usage of alu_cc1
avg_resultbus_power_cc1       0.2005 # avg power usage of resultbus_cc1
avg_clock_power_cc1          3.0056 # avg power usage of clock_cc1
fetch_stage_power_cc1  111301960.2066 # total power usage of fetch stage_cc1
dispatch_stage_power_cc1 15339967.4145 # total power usage of dispatch stage_cc1
issue_stage_power_cc1  504605309.1045 # total power usage of issue stage_cc1
avg_fetch_power_cc1          0.4475 # average power of fetch unit per cycle_cc1
avg_dispatch_power_cc1       0.0617 # average power of dispatch unit per cycle_cc1
avg_issue_power_cc1          2.0289 # average power of issue unit per cycle_cc1
total_power_cycle_cc1  1494896090.7652 # total power per cycle_cc1
avg_total_power_cycle_cc1       6.0107 # average total power per cycle_cc1
avg_total_power_insn_cc1      14.9490 # average total power per insn_cc1
rename_power_cc2       10449137.3758 # total power usage of rename unit_cc2
bpred_power_cc2              0.0000 # total power usage of bpred unit_cc2
window_power_cc2       86855861.1968 # total power usage of instruction window_cc2
lsq_power_cc2          8371520.9349 # total power usage of lsq_cc2
regfile_power_cc2      53525435.6077 # total power usage of arch. regfile_cc2
icache_power_cc2       111301960.2066 # total power usage of icache_cc2
dcache_power_cc2       110955417.4958 # total power usage of dcache_cc2
dcache2_power_cc2      11816327.9327 # total power usage of dcache2_cc2
alu_power_cc2          219165746.1110 # total power usage of alu_cc2
resultbus_power_cc2    25961790.3354 # total power usage of resultbus_cc2
clock_power_cc2        651417545.3718 # total power usage of clock_cc2
avg_rename_power_cc2         0.0420 # avg power usage of rename unit_cc2
avg_bpred_power_cc2          0.0000 # avg power usage of bpred unit_cc2
avg_window_power_cc2         0.3492 # avg power usage of instruction window_cc2
avg_lsq_power_cc2            0.0337 # avg power usage of instruction lsq_cc2
avg_regfile_power_cc2        0.2152 # avg power usage of arch. regfile_cc2
avg_icache_power_cc2         0.4475 # avg power usage of icache_cc2
avg_dcache_power_cc2         0.4461 # avg power usage of dcache_cc2
avg_dcache2_power_cc2        0.0475 # avg power usage of dcache2_cc2
avg_alu_power_cc2            0.8812 # avg power usage of alu_cc2
avg_resultbus_power_cc2       0.1044 # avg power usage of resultbus_cc2
avg_clock_power_cc2          2.6192 # avg power usage of clock_cc2
fetch_stage_power_cc2  111301960.2066 # total power usage of fetch stage_cc2
dispatch_stage_power_cc2 10449137.3758 # total power usage of dispatch stage_cc2
issue_stage_power_cc2  463126664.0066 # total power usage of issue stage_cc2
avg_fetch_power_cc2          0.4475 # average power of fetch unit per cycle_cc2
avg_dispatch_power_cc2       0.0420 # average power of dispatch unit per cycle_cc2
avg_issue_power_cc2          1.8621 # average power of issue unit per cycle_cc2
total_power_cycle_cc2  1289820742.5684 # total power per cycle_cc2
avg_total_power_cycle_cc2       5.1861 # average total power per cycle_cc2
avg_total_power_insn_cc2      12.8982 # average total power per insn_cc2
rename_power_cc3       19310262.4000 # total power usage of rename unit_cc3
bpred_power_cc3        82981024.7296 # total power usage of bpred unit_cc3
window_power_cc3       127540149.6013 # total power usage of instruction window_cc3
lsq_power_cc3          18221049.9533 # total power usage of lsq_cc3
regfile_power_cc3      129098816.2509 # total power usage of arch. regfile_cc3
icache_power_cc3       175593929.6241 # total power usage of icache_cc3
dcache_power_cc3       180750225.3583 # total power usage of dcache_cc3
dcache2_power_cc3      88075741.4353 # total power usage of dcache2_cc3
alu_power_cc3          317482887.4478 # total power usage of alu_cc3
resultbus_power_cc3    42657582.7695 # total power usage of resultbus_cc3
clock_power_cc3        1047480760.4804 # total power usage of clock_cc3
avg_rename_power_cc3         0.0776 # avg power usage of rename unit_cc3
avg_bpred_power_cc3          0.3336 # avg power usage of bpred unit_cc3
avg_window_power_cc3         0.5128 # avg power usage of instruction window_cc3
avg_lsq_power_cc3            0.0733 # avg power usage of instruction lsq_cc3
avg_regfile_power_cc3        0.5191 # avg power usage of arch. regfile_cc3
avg_icache_power_cc3         0.7060 # avg power usage of icache_cc3
avg_dcache_power_cc3         0.7268 # avg power usage of dcache_cc3
avg_dcache2_power_cc3        0.3541 # avg power usage of dcache2_cc3
avg_alu_power_cc3            1.2765 # avg power usage of alu_cc3
avg_resultbus_power_cc3       0.1715 # avg power usage of resultbus_cc3
avg_clock_power_cc3          4.2117 # avg power usage of clock_cc3
fetch_stage_power_cc3  258574954.3537 # total power usage of fetch stage_cc3
dispatch_stage_power_cc3 19310262.4000 # total power usage of dispatch stage_cc3
issue_stage_power_cc3  774727636.5654 # total power usage of issue stage_cc3
avg_fetch_power_cc3          1.0397 # average power of fetch unit per cycle_cc3
avg_dispatch_power_cc3       0.0776 # average power of dispatch unit per cycle_cc3
avg_issue_power_cc3          3.1150 # average power of issue unit per cycle_cc3
total_power_cycle_cc3  2229192430.0504 # total power per cycle_cc3
avg_total_power_cycle_cc3       8.9631 # average total power per cycle_cc3
avg_total_power_insn_cc3      22.2919 # average total power per insn_cc3
total_rename_access       100000002 # total number accesses of rename unit
total_bpred_access                0 # total number accesses of bpred unit
total_window_access       416579256 # total number accesses of instruction window
total_lsq_access           34465216 # total number accesses of load/store queue
total_regfile_access      206178478 # total number accesses of arch. regfile
total_icache_access       101359206 # total number accesses of icache
total_dcache_access        34465184 # total number accesses of dcache
total_dcache2_access        3808062 # total number accesses of dcache2
total_alu_access           99381938 # total number accesses of alu
total_resultbus_access    125147362 # total number accesses of resultbus
avg_rename_access            0.4021 # avg number accesses of rename unit
avg_bpred_access             0.0000 # avg number accesses of bpred unit
avg_window_access            1.6750 # avg number accesses of instruction window
avg_lsq_access               0.1386 # avg number accesses of lsq
avg_regfile_access           0.8290 # avg number accesses of arch. regfile
avg_icache_access            0.4075 # avg number accesses of icache
avg_dcache_access            0.1386 # avg number accesses of dcache
avg_dcache2_access           0.0153 # avg number accesses of dcache2
avg_alu_access               0.3996 # avg number accesses of alu
avg_resultbus_access         0.5032 # avg number accesses of resultbus
max_rename_access                 4 # max number accesses of rename unit
max_bpred_access                  0 # max number accesses of bpred unit
max_window_access                15 # max number accesses of instruction window
max_lsq_access                    3 # max number accesses of load/store queue
max_regfile_access               12 # max number accesses of arch. regfile
max_icache_access                 4 # max number accesses of icache
max_dcache_access                 2 # max number accesses of dcache
max_dcache2_access                4 # max number accesses of dcache2
max_alu_access                    3 # max number accesses of alu
max_resultbus_access              6 # max number accesses of resultbus
max_cycle_power_cc1         25.0712 # maximum cycle power usage of cc1
max_cycle_power_cc2         27.2596 # maximum cycle power usage of cc2
max_cycle_power_cc3         29.1555 # maximum cycle power usage of cc3
sim_invalid_addrs                 0 # total non-speculative bogus addresses seen (debug var)
ld_text_base           0x0120000000 # program text (code) segment base
ld_text_size                 819200 # program text (code) size in bytes
ld_data_base           0x0140000000 # program initialized data segment base
ld_data_size              199810704 # program init'ed `.data' and uninit'ed `.bss' size in bytes
ld_stack_base          0x011ff9b000 # program stack segment base (highest address in stack)
ld_stack_size                 16384 # program initial stack size
ld_prog_entry          0x012001a610 # program entry point (initial PC)
ld_environ_base        0x011ff96e70 # program environment base address address
ld_target_big_endian              0 # target executable endian-ness, non-zero if big endian
mem.page_count                24496 # total number of pages allocated
mem.page_mem                195968k # total size of memory pages allocated
mem.ptab_misses               24901 # total first level page table misses
mem.ptab_accesses        1113596352 # total page table accesses
mem.ptab_miss_rate           0.0000 # first level page table miss rate

