sim-outorder: SimpleScalar/Alpha Tool Set version 3.0 of August, 2003.
Copyright (c) 1994-2003 by Todd M. Austin, Ph.D. and SimpleScalar, LLC.
All Rights Reserved. This version of SimpleScalar is licensed for academic
non-commercial use.  No portion of this work may be used by any commercial
entity, or for any commercial purpose, without the prior written permission
of SimpleScalar, LLC (info@simplescalar.com).


Processor Parameters:
Issue Width: 4
Window Size: 16
Number of Virtual Registers: 32
Number of Physical Registers: 16
Datapath Width: 64
Total Power Consumption: 45.994
Branch Predictor Power Consumption: 3.33649  (7.58%)
 branch target buffer power (W): 2.49493
 local predict power (W): 0.574771
 global predict power (W): 0.0996078
 chooser power (W): 0.0702439
 RAS power (W): 0.0969383
Rename Logic Power Consumption: 0.417965  (0.95%)
 Instruction Decode Power (W): 0.0159915
 RAT decode_power (W): 0.113514
 RAT wordline_power (W): 0.0307815
 RAT bitline_power (W): 0.246771
 DCL Comparators (W): 0.0109075
Instruction Window Power Consumption: 2.20432  (5.01%)
 tagdrive (W): 0.0943488
 tagmatch (W): 0.033695
 Selection Logic (W): 0.0134217
 decode_power (W): 0.0532503
 wordline_power (W): 0.0844643
 bitline_power (W): 1.92514
Load/Store Queue Power Consumption: 0.4302  (0.978%)
 tagdrive (W): 0.220308
 tagmatch (W): 0.0487252
 decode_power (W): 0.00399788
 wordline_power (W): 0.00584427
 bitline_power (W): 0.151325
Arch. Register File Power Consumption: 3.57247  (8.12%)
 decode_power (W): 0.113514
 wordline_power (W): 0.0844643
 bitline_power (W): 3.37449
Result Bus Power Consumption: 0.885119  (2.01%)
Total Clock Power: 19.0573  (43.3%)
Int ALU Power: 1.16503  (2.65%)
FP ALU Power: 3.57026  (8.12%)
Instruction Cache Power Consumption: 2.76773  (6.29%)
 decode_power (W): 0.151353
 wordline_power (W): 0.180479
 bitline_power (W): 1.42251
 senseamp_power (W): 0.768
 tagarray_power (W): 0.245382
Itlb_power (W): 0.264834 (0.602%)
Data Cache Power Consumption: 2.76773  (6.29%)
 decode_power (W): 0.151353
 wordline_power (W): 0.180479
 bitline_power (W): 1.42251
 senseamp_power (W): 0.768
 tagarray_power (W): 0.245382
Dtlb_power (W): 0.451619 (1.03%)
Level 2 Cache Power Consumption: 3.10298 (7.05%)
 decode_power (W): 0.19487
 wordline_power (W): 0.0430878
 bitline_power (W): 1.77274
 senseamp_power (W): 0.192
 tagarray_power (W): 0.900275
sim: loading EIO file: ../benchmarks/179.art.470-ref.eio.gz
sim: command line: ./sim-outorder -config ../configs/current.config ../benchmarks/179.art.470-ref.eio.gz 

sim: simulation started @ Mon Nov 23 20:40:47 2015, options follow:

sim-outorder: This simulator implements a very detailed out-of-order issue
superscalar processor with a two-level memory system and speculative
execution support.  This simulator is a performance simulator, tracking the
latency of all pipeline operations.

# -config                     # load configuration from a file
# -dumpconfig                 # dump configuration to a file
# -h                    false # print help message    
# -v                    false # verbose operation     
# -d                    false # enable debug message  
# -i                    false # start in Dlite debugger
-seed                       1 # random number generator seed (0 for timer seed)
# -q                    false # initialize and terminate immediately
# -chkpt               <null> # restore EIO trace execution from <fname>
# -redir:sim     ../results/11_01_min_fus/179.art.470-ref.eio.gz.out # redirect simulator output to file (non-interactive only)
# -redir:prog       /dev/null # redirect simulated program output to file
-nice                       0 # simulator scheduling priority
-freq            600000000.0000 # frequency             
-max:inst           100000000 # maximum number of inst's to execute
-fastfwd                    0 # number of insts skipped before timing starts
# -ptrace              <null> # generate pipetrace, i.e., <fname|stdout|stderr> <range>
-fetch:ifqsize              4 # instruction fetch queue size (in insts)
-fetch:mplat                3 # extra branch mis-prediction latency
-fetch:speed                1 # speed of front-end of machine relative to execution core
-bpred                perfect # branch predictor type {nottaken|taken|perfect|bimod|2lev|comb}
-bpred:bimod     2048 # bimodal predictor config (<table size>)
-bpred:2lev      1 16384 4 0 # 2-level predictor config (<l1size> <l2size> <hist_size> <xor>)
-bpred:comb      1024 # combining predictor config (<meta_table_size>)
-bpred:ras                  8 # return address stack size (0 for no return stack)
-bpred:btb       512 4 # BTB config (<num_sets> <associativity>)
# -bpred:spec_update       <null> # speculative predictors update in {ID|WB} (default non-spec)
-decode:width               4 # instruction decode B/W (insts/cycle)
-issue:width                4 # instruction issue B/W (insts/cycle)
-issue:inorder          false # run pipeline with in-order issue
-issue:wrongpath         true # issue instructions down wrong execution paths
-commit:width               4 # instruction commit B/W (insts/cycle)
-ruu:size                  16 # register update unit (RUU) size
-lsq:size                   8 # load/store queue (LSQ) size
-cache:dl1       dl1:32:64:8:f # l1 data cache config, i.e., {<config>|none}
-cache:dl1lat               1 # l1 data cache hit latency (in cycles)
-cache:dl2       dl2:256:64:8:f # l2 data cache config, i.e., {<config>|none}
-cache:dl2lat               2 # l2 data cache hit latency (in cycles)
-cache:il1       il1:32:64:8:f # l1 inst cache config, i.e., {<config>|dl1|dl2|none}
-cache:il1lat               1 # l1 instruction cache hit latency (in cycles)
-cache:il2                dl2 # l2 instruction cache config, i.e., {<config>|dl2|none}
-cache:il2lat               2 # l2 instruction cache hit latency (in cycles)
-cache:flush            false # flush caches on system calls
-cache:icompress        false # convert 64-bit inst addresses to 32-bit inst equivalents
-mem:lat         103 1 # memory access latency (<first_chunk> <inter_chunk>)
-mem:width                  8 # memory access bus width (in bytes)
-tlb:itlb        itlb:16:4096:4:l # instruction TLB config, i.e., {<config>|none}
-tlb:dtlb        dtlb:32:4096:4:l # data TLB config, i.e., {<config>|none}
-tlb:lat                   30 # inst/data TLB miss latency (in cycles)
-res:ialu                   1 # total number of integer ALU's available
-res:imult                  1 # total number of integer multiplier/dividers available
-res:memport                1 # total number of memory system ports available (to CPU)
-res:fpalu                  1 # total number of floating point ALU's available
-res:fpmult                 1 # total number of floating point multiplier/dividers available
# -pcstat              <null> # profile stat(s) against text addr's (mult uses ok)
-bugcompat              false # operate in backward-compatible bugs mode (for testing only)

  Pipetrace range arguments are formatted as follows:

    {{@|#}<start>}:{{@|#|+}<end>}

  Both ends of the range are optional, if neither are specified, the entire
  execution is traced.  Ranges that start with a `@' designate an address
  range to be traced, those that start with an `#' designate a cycle count
  range.  All other range values represent an instruction count range.  The
  second argument, if specified with a `+', indicates a value relative
  to the first argument, e.g., 1000:+100 == 1000:1100.  Program symbols may
  be used in all contexts.

    Examples:   -ptrace FOO.trc #0:#1000
                -ptrace BAR.trc @2000:
                -ptrace BLAH.trc :1500
                -ptrace UXXE.trc :
                -ptrace FOOBAR.trc @main:+278

  Branch predictor configuration examples for 2-level predictor:
    Configurations:   N, M, W, X
      N   # entries in first level (# of shift register(s))
      W   width of shift register(s)
      M   # entries in 2nd level (# of counters, or other FSM)
      X   (yes-1/no-0) xor history and address for 2nd level index
    Sample predictors:
      GAg     : 1, W, 2^W, 0
      GAp     : 1, W, M (M > 2^W), 0
      PAg     : N, W, 2^W, 0
      PAp     : N, W, M (M == 2^(N+W)), 0
      gshare  : 1, W, 2^W, 1
  Predictor `comb' combines a bimodal and a 2-level predictor.

  The cache config parameter <config> has the following format:

    <name>:<nsets>:<bsize>:<assoc>:<repl>

    <name>   - name of the cache being defined
    <nsets>  - number of sets in the cache
    <bsize>  - block size of the cache
    <assoc>  - associativity of the cache
    <repl>   - block replacement strategy, 'l'-LRU, 'f'-FIFO, 'r'-random

    Examples:   -cache:dl1 dl1:4096:32:1:l
                -dtlb dtlb:128:4096:32:r

  Cache levels can be unified by pointing a level of the instruction cache
  hierarchy at the data cache hiearchy using the "dl1" and "dl2" cache
  configuration arguments.  Most sensible combinations are supported, e.g.,

    A unified l2 cache (il2 is pointed at dl2):
      -cache:il1 il1:128:64:1:l -cache:il2 dl2
      -cache:dl1 dl1:256:32:1:l -cache:dl2 ul2:1024:64:2:l

    Or, a fully unified cache hierarchy (il1 pointed at dl1):
      -cache:il1 dl1
      -cache:dl1 ul1:256:32:1:l -cache:dl2 ul2:1024:64:2:l



sim: ** starting performance simulation **

sim: ** simulation statistics **
sim_num_insn              100000000 # total number of instructions committed
sim_num_refs               34756135 # total number of loads and stores committed
sim_num_loads              26928370 # total number of loads committed
sim_num_stores         7827765.0000 # total number of stores committed
sim_num_branches           13138022 # total number of branches committed
sim_elapsed_time                236 # total simulation time in seconds
sim_inst_rate           423728.8136 # simulation speed (in insts/sec)
sim_total_insn            100000000 # total number of instructions executed
sim_total_refs             34756135 # total number of loads and stores executed
sim_total_loads            26928370 # total number of loads executed
sim_total_stores       7827765.0000 # total number of stores executed
sim_total_branches         13138022 # total number of branches executed
sim_cycle                 509998227 # total simulation time in cycles
sim_IPC                      0.1961 # instructions per cycle
sim_CPI                      5.1000 # cycles per instruction
sim_exec_BW                  0.1961 # total instructions (mis-spec + committed) per cycle
sim_IPB                      7.6115 # instruction per branch
IFQ_count                2039922520 # cumulative IFQ occupancy
IFQ_fcount                509979951 # cumulative IFQ full count
ifq_occupancy                3.9999 # avg IFQ occupancy (insn's)
ifq_rate                     0.1961 # avg IFQ dispatch rate (insn/cycle)
ifq_latency                 20.3992 # avg IFQ occupant latency (cycle's)
ifq_full                     1.0000 # fraction of time (cycle's) IFQ was full
RUU_count                6869215691 # cumulative RUU occupancy
RUU_fcount                173416264 # cumulative RUU full count
ruu_occupancy               13.4691 # avg RUU occupancy (insn's)
ruu_rate                     0.1961 # avg RUU dispatch rate (insn/cycle)
ruu_latency                 68.6922 # avg RUU occupant latency (cycle's)
ruu_full                     0.3400 # fraction of time (cycle's) RUU was full
LSQ_count                3264745000 # cumulative LSQ occupancy
LSQ_fcount                329963662 # cumulative LSQ full count
lsq_occupancy                6.4015 # avg LSQ occupancy (insn's)
lsq_rate                     0.1961 # avg LSQ dispatch rate (insn/cycle)
lsq_latency                 32.6474 # avg LSQ occupant latency (cycle's)
lsq_full                     0.6470 # fraction of time (cycle's) LSQ was full
sim_slip                10268715531 # total number of slip cycles
avg_sim_slip               102.6872 # the average slip between issue and retirement
il1.accesses              123700594 # total number of accesses
il1.hits                  123700428 # total number of hits
il1.misses                      166 # total number of misses
il1.replacements                  0 # total number of replacements
il1.writebacks                    0 # total number of writebacks
il1.invalidations                 0 # total number of invalidations
il1.miss_rate                0.0000 # miss rate (i.e., misses/ref)
il1.repl_rate                0.0000 # replacement rate (i.e., repls/ref)
il1.wb_rate                  0.0000 # writeback rate (i.e., wrbks/ref)
il1.inv_rate                 0.0000 # invalidation rate (i.e., invs/ref)
dl1.accesses               34399635 # total number of accesses
dl1.hits                   22824734 # total number of hits
dl1.misses                 11574901 # total number of misses
dl1.replacements           11574645 # total number of replacements
dl1.writebacks              3166861 # total number of writebacks
dl1.invalidations                 0 # total number of invalidations
dl1.miss_rate                0.3365 # miss rate (i.e., misses/ref)
dl1.repl_rate                0.3365 # replacement rate (i.e., repls/ref)
dl1.wb_rate                  0.0921 # writeback rate (i.e., wrbks/ref)
dl1.inv_rate                 0.0000 # invalidation rate (i.e., invs/ref)
dl2.accesses               14741928 # total number of accesses
dl2.hits                    3200953 # total number of hits
dl2.misses                 11540975 # total number of misses
dl2.replacements           11538927 # total number of replacements
dl2.writebacks              3139161 # total number of writebacks
dl2.invalidations                 0 # total number of invalidations
dl2.miss_rate                0.7829 # miss rate (i.e., misses/ref)
dl2.repl_rate                0.7827 # replacement rate (i.e., repls/ref)
dl2.wb_rate                  0.2129 # writeback rate (i.e., wrbks/ref)
dl2.inv_rate                 0.0000 # invalidation rate (i.e., invs/ref)
itlb.accesses             123700594 # total number of accesses
itlb.hits                 123700587 # total number of hits
itlb.misses                       7 # total number of misses
itlb.replacements                 0 # total number of replacements
itlb.writebacks                   0 # total number of writebacks
itlb.invalidations                0 # total number of invalidations
itlb.miss_rate               0.0000 # miss rate (i.e., misses/ref)
itlb.repl_rate               0.0000 # replacement rate (i.e., repls/ref)
itlb.wb_rate                 0.0000 # writeback rate (i.e., wrbks/ref)
itlb.inv_rate                0.0000 # invalidation rate (i.e., invs/ref)
dtlb.accesses              34756132 # total number of accesses
dtlb.hits                  34452283 # total number of hits
dtlb.misses                  303849 # total number of misses
dtlb.replacements            303721 # total number of replacements
dtlb.writebacks                   0 # total number of writebacks
dtlb.invalidations                0 # total number of invalidations
dtlb.miss_rate               0.0087 # miss rate (i.e., misses/ref)
dtlb.repl_rate               0.0087 # replacement rate (i.e., repls/ref)
dtlb.wb_rate                 0.0000 # writeback rate (i.e., wrbks/ref)
dtlb.inv_rate                0.0000 # invalidation rate (i.e., invs/ref)
rename_power           213161659.9519 # total power usage of rename unit
bpred_power            1701603219.1562 # total power usage of bpred unit
window_power           1124199010.5474 # total power usage of instruction window
lsq_power              219401333.8235 # total power usage of load/store queue
regfile_power          1821954435.1544 # total power usage of arch. regfile
icache_power           1546601772.6660 # total power usage of icache
dcache_power           1641861718.6757 # total power usage of dcache
dcache2_power          1582512663.3776 # total power usage of dcache2
alu_power              2414991475.1557 # total power usage of alu
falu_power             1820826902.2947 # total power usage of falu
resultbus_power        451409108.1939 # total power usage of resultbus
clock_power            9719170469.1593 # total power usage of clock
avg_rename_power             0.4180 # avg power usage of rename unit
avg_bpred_power              3.3365 # avg power usage of bpred unit
avg_window_power             2.2043 # avg power usage of instruction window
avg_lsq_power                0.4302 # avg power usage of lsq
avg_regfile_power            3.5725 # avg power usage of arch. regfile
avg_icache_power             3.0326 # avg power usage of icache
avg_dcache_power             3.2193 # avg power usage of dcache
avg_dcache2_power            3.1030 # avg power usage of dcache2
avg_alu_power                4.7353 # avg power usage of alu
avg_falu_power               3.5703 # avg power usage of falu
avg_resultbus_power          0.8851 # avg power usage of resultbus
avg_clock_power             19.0573 # avg power usage of clock
fetch_stage_power      3248204991.8222 # total power usage of fetch stage
dispatch_stage_power   213161659.9519 # total power usage of dispatch stage
issue_stage_power      7434375309.7737 # total power usage of issue stage
avg_fetch_power              6.3691 # average power of fetch unit per cycle
avg_dispatch_power           0.4180 # average power of dispatch unit per cycle
avg_issue_power             14.5773 # average power of issue unit per cycle
total_power            22436866865.8615 # total power per cycle
avg_total_power_cycle       43.9940 # average total power per cycle
avg_total_power_cycle_nofp_nod2      37.3208 # average total power per cycle
avg_total_power_insn       224.3687 # average total power per insn
avg_total_power_insn_nofp_nod2     190.3353 # average total power per insn
rename_power_cc1       23691846.1390 # total power usage of rename unit_cc1
bpred_power_cc1              0.0000 # total power usage of bpred unit_cc1
window_power_cc1       225354910.5444 # total power usage of instruction window_cc1
lsq_power_cc1          8428064.4427 # total power usage of lsq_cc1
regfile_power_cc1      180175777.4028 # total power usage of arch. regfile_cc1
icache_power_cc1       171897106.8702 # total power usage of icache_cc1
dcache_power_cc1       110744392.4566 # total power usage of dcache_cc1
dcache2_power_cc1      45743860.1594 # total power usage of dcache2_cc1
alu_power_cc1          157784362.5927 # total power usage of alu_cc1
resultbus_power_cc1    72044389.9259 # total power usage of resultbus_cc1
clock_power_cc1        810871408.2825 # total power usage of clock_cc1
avg_rename_power_cc1         0.0465 # avg power usage of rename unit_cc1
avg_bpred_power_cc1          0.0000 # avg power usage of bpred unit_cc1
avg_window_power_cc1         0.4419 # avg power usage of instruction window_cc1
avg_lsq_power_cc1            0.0165 # avg power usage of lsq_cc1
avg_regfile_power_cc1        0.3533 # avg power usage of arch. regfile_cc1
avg_icache_power_cc1         0.3371 # avg power usage of icache_cc1
avg_dcache_power_cc1         0.2171 # avg power usage of dcache_cc1
avg_dcache2_power_cc1        0.0897 # avg power usage of dcache2_cc1
avg_alu_power_cc1            0.3094 # avg power usage of alu_cc1
avg_resultbus_power_cc1       0.1413 # avg power usage of resultbus_cc1
avg_clock_power_cc1          1.5899 # avg power usage of clock_cc1
fetch_stage_power_cc1  171897106.8702 # total power usage of fetch stage_cc1
dispatch_stage_power_cc1 23691846.1390 # total power usage of dispatch stage_cc1
issue_stage_power_cc1  620099980.1219 # total power usage of issue stage_cc1
avg_fetch_power_cc1          0.3371 # average power of fetch unit per cycle_cc1
avg_dispatch_power_cc1       0.0465 # average power of dispatch unit per cycle_cc1
avg_issue_power_cc1          1.2159 # average power of issue unit per cycle_cc1
total_power_cycle_cc1  1806736118.8164 # total power per cycle_cc1
avg_total_power_cycle_cc1       3.5426 # average total power per cycle_cc1
avg_total_power_insn_cc1      18.0674 # average total power per insn_cc1
rename_power_cc2       10449137.1667 # total power usage of rename unit_cc2
bpred_power_cc2              0.0000 # total power usage of bpred unit_cc2
window_power_cc2       84394553.8953 # total power usage of instruction window_cc2
lsq_power_cc2          8428064.4427 # total power usage of lsq_cc2
regfile_power_cc2      43810985.2702 # total power usage of arch. regfile_cc2
icache_power_cc2       171897106.8702 # total power usage of icache_cc2
dcache_power_cc2       110744392.4566 # total power usage of dcache_cc2
dcache2_power_cc2      45743860.1594 # total power usage of dcache2_cc2
alu_power_cc2          164331766.8846 # total power usage of alu_cc2
resultbus_power_cc2    23605778.8125 # total power usage of resultbus_cc2
clock_power_cc2        527105020.1431 # total power usage of clock_cc2
avg_rename_power_cc2         0.0205 # avg power usage of rename unit_cc2
avg_bpred_power_cc2          0.0000 # avg power usage of bpred unit_cc2
avg_window_power_cc2         0.1655 # avg power usage of instruction window_cc2
avg_lsq_power_cc2            0.0165 # avg power usage of instruction lsq_cc2
avg_regfile_power_cc2        0.0859 # avg power usage of arch. regfile_cc2
avg_icache_power_cc2         0.3371 # avg power usage of icache_cc2
avg_dcache_power_cc2         0.2171 # avg power usage of dcache_cc2
avg_dcache2_power_cc2        0.0897 # avg power usage of dcache2_cc2
avg_alu_power_cc2            0.3222 # avg power usage of alu_cc2
avg_resultbus_power_cc2       0.0463 # avg power usage of resultbus_cc2
avg_clock_power_cc2          1.0335 # avg power usage of clock_cc2
fetch_stage_power_cc2  171897106.8702 # total power usage of fetch stage_cc2
dispatch_stage_power_cc2 10449137.1667 # total power usage of dispatch stage_cc2
issue_stage_power_cc2  437248416.6513 # total power usage of issue stage_cc2
avg_fetch_power_cc2          0.3371 # average power of fetch unit per cycle_cc2
avg_dispatch_power_cc2       0.0205 # average power of dispatch unit per cycle_cc2
avg_issue_power_cc2          0.8574 # average power of issue unit per cycle_cc2
total_power_cycle_cc2  1190510666.1014 # total power per cycle_cc2
avg_total_power_cycle_cc2       2.3343 # average total power per cycle_cc2
avg_total_power_insn_cc2      11.9051 # average total power per insn_cc2
rename_power_cc3       29396118.4874 # total power usage of rename unit_cc3
bpred_power_cc3        170160322.7020 # total power usage of bpred unit_cc3
window_power_cc3       172416792.4013 # total power usage of instruction window_cc3
lsq_power_cc3          29517575.7642 # total power usage of lsq_cc3
regfile_power_cc3      206251605.3480 # total power usage of arch. regfile_cc3
icache_power_cc3       309367575.1245 # total power usage of icache_cc3
dcache_power_cc3       264551135.5710 # total power usage of dcache_cc3
dcache2_power_cc3      200405155.1337 # total power usage of dcache2_cc3
alu_power_cc3          390052481.1305 # total power usage of alu_cc3
resultbus_power_cc3    61062253.3128 # total power usage of resultbus_cc3
clock_power_cc3        1415000448.7865 # total power usage of clock_cc3
avg_rename_power_cc3         0.0576 # avg power usage of rename unit_cc3
avg_bpred_power_cc3          0.3336 # avg power usage of bpred unit_cc3
avg_window_power_cc3         0.3381 # avg power usage of instruction window_cc3
avg_lsq_power_cc3            0.0579 # avg power usage of instruction lsq_cc3
avg_regfile_power_cc3        0.4044 # avg power usage of arch. regfile_cc3
avg_icache_power_cc3         0.6066 # avg power usage of icache_cc3
avg_dcache_power_cc3         0.5187 # avg power usage of dcache_cc3
avg_dcache2_power_cc3        0.3930 # avg power usage of dcache2_cc3
avg_alu_power_cc3            0.7648 # avg power usage of alu_cc3
avg_resultbus_power_cc3       0.1197 # avg power usage of resultbus_cc3
avg_clock_power_cc3          2.7745 # avg power usage of clock_cc3
fetch_stage_power_cc3  479527897.8265 # total power usage of fetch stage_cc3
dispatch_stage_power_cc3 29396118.4874 # total power usage of dispatch stage_cc3
issue_stage_power_cc3  1118005393.3136 # total power usage of issue stage_cc3
avg_fetch_power_cc3          0.9403 # average power of fetch unit per cycle_cc3
avg_dispatch_power_cc3       0.0576 # average power of dispatch unit per cycle_cc3
avg_issue_power_cc3          2.1922 # average power of issue unit per cycle_cc3
total_power_cycle_cc3  3248181463.7620 # total power per cycle_cc3
avg_total_power_cycle_cc3       6.3690 # average total power per cycle_cc3
avg_total_power_insn_cc3      32.4818 # average total power per insn_cc3
total_rename_access       100000000 # total number accesses of rename unit
total_bpred_access                0 # total number accesses of bpred unit
total_window_access       382165533 # total number accesses of instruction window
total_lsq_access           35112629 # total number accesses of load/store queue
total_regfile_access      162558722 # total number accesses of arch. regfile
total_icache_access       123700594 # total number accesses of icache
total_dcache_access        34399635 # total number accesses of dcache
total_dcache2_access       14741928 # total number accesses of dcache2
total_alu_access           99999895 # total number accesses of alu
total_resultbus_access    113790340 # total number accesses of resultbus
avg_rename_access            0.1961 # avg number accesses of rename unit
avg_bpred_access             0.0000 # avg number accesses of bpred unit
avg_window_access            0.7493 # avg number accesses of instruction window
avg_lsq_access               0.0688 # avg number accesses of lsq
avg_regfile_access           0.3187 # avg number accesses of arch. regfile
avg_icache_access            0.2426 # avg number accesses of icache
avg_dcache_access            0.0675 # avg number accesses of dcache
avg_dcache2_access           0.0289 # avg number accesses of dcache2
avg_alu_access               0.1961 # avg number accesses of alu
avg_resultbus_access         0.2231 # avg number accesses of resultbus
max_rename_access                 4 # max number accesses of rename unit
max_bpred_access                  0 # max number accesses of bpred unit
max_window_access                15 # max number accesses of instruction window
max_lsq_access                    3 # max number accesses of load/store queue
max_regfile_access               12 # max number accesses of arch. regfile
max_icache_access                 4 # max number accesses of icache
max_dcache_access                 2 # max number accesses of dcache
max_dcache2_access                4 # max number accesses of dcache2
max_alu_access                    3 # max number accesses of alu
max_resultbus_access              8 # max number accesses of resultbus
max_cycle_power_cc1         23.7191 # maximum cycle power usage of cc1
max_cycle_power_cc2         25.3832 # maximum cycle power usage of cc2
max_cycle_power_cc3         27.4679 # maximum cycle power usage of cc3
sim_invalid_addrs                 0 # total non-speculative bogus addresses seen (debug var)
ld_text_base           0x0120000000 # program text (code) segment base
ld_text_size                 237568 # program text (code) size in bytes
ld_data_base           0x0140000000 # program initialized data segment base
ld_data_size                  76672 # program init'ed `.data' and uninit'ed `.bss' size in bytes
ld_stack_base          0x011ff9b000 # program stack segment base (highest address in stack)
ld_stack_size                 16384 # program initial stack size
ld_prog_entry          0x012000fd30 # program entry point (initial PC)
ld_environ_base        0x011ff96ea0 # program environment base address address
ld_target_big_endian              0 # target executable endian-ness, non-zero if big endian
mem.page_count                  499 # total number of pages allocated
mem.page_mem                  3992k # total size of memory pages allocated
mem.ptab_misses                 594 # total first level page table misses
mem.ptab_accesses         755567884 # total page table accesses
mem.ptab_miss_rate           0.0000 # first level page table miss rate

