sim-outorder: SimpleScalar/Alpha Tool Set version 3.0 of August, 2003.
Copyright (c) 1994-2003 by Todd M. Austin, Ph.D. and SimpleScalar, LLC.
All Rights Reserved. This version of SimpleScalar is licensed for academic
non-commercial use.  No portion of this work may be used by any commercial
entity, or for any commercial purpose, without the prior written permission
of SimpleScalar, LLC (info@simplescalar.com).


Processor Parameters:
Issue Width: 4
Window Size: 16
Number of Virtual Registers: 32
Number of Physical Registers: 16
Datapath Width: 64
Total Power Consumption: 45.994
Branch Predictor Power Consumption: 3.33649  (7.58%)
 branch target buffer power (W): 2.49493
 local predict power (W): 0.574771
 global predict power (W): 0.0996078
 chooser power (W): 0.0702439
 RAS power (W): 0.0969383
Rename Logic Power Consumption: 0.417965  (0.95%)
 Instruction Decode Power (W): 0.0159915
 RAT decode_power (W): 0.113514
 RAT wordline_power (W): 0.0307815
 RAT bitline_power (W): 0.246771
 DCL Comparators (W): 0.0109075
Instruction Window Power Consumption: 2.20432  (5.01%)
 tagdrive (W): 0.0943488
 tagmatch (W): 0.033695
 Selection Logic (W): 0.0134217
 decode_power (W): 0.0532503
 wordline_power (W): 0.0844643
 bitline_power (W): 1.92514
Load/Store Queue Power Consumption: 0.4302  (0.978%)
 tagdrive (W): 0.220308
 tagmatch (W): 0.0487252
 decode_power (W): 0.00399788
 wordline_power (W): 0.00584427
 bitline_power (W): 0.151325
Arch. Register File Power Consumption: 3.57247  (8.12%)
 decode_power (W): 0.113514
 wordline_power (W): 0.0844643
 bitline_power (W): 3.37449
Result Bus Power Consumption: 0.885119  (2.01%)
Total Clock Power: 19.0573  (43.3%)
Int ALU Power: 1.16503  (2.65%)
FP ALU Power: 3.57026  (8.12%)
Instruction Cache Power Consumption: 2.76773  (6.29%)
 decode_power (W): 0.151353
 wordline_power (W): 0.180479
 bitline_power (W): 1.42251
 senseamp_power (W): 0.768
 tagarray_power (W): 0.245382
Itlb_power (W): 0.264834 (0.602%)
Data Cache Power Consumption: 2.76773  (6.29%)
 decode_power (W): 0.151353
 wordline_power (W): 0.180479
 bitline_power (W): 1.42251
 senseamp_power (W): 0.768
 tagarray_power (W): 0.245382
Dtlb_power (W): 0.451619 (1.03%)
Level 2 Cache Power Consumption: 3.10298 (7.05%)
 decode_power (W): 0.19487
 wordline_power (W): 0.0430878
 bitline_power (W): 1.77274
 senseamp_power (W): 0.192
 tagarray_power (W): 0.900275
sim: loading EIO file: ../benchmarks/191.fma3d.spec_ref.eio.gz
sim: command line: ./sim-outorder -config ../configs/current.config ../benchmarks/191.fma3d.spec_ref.eio.gz 

sim: simulation started @ Mon Nov 23 20:40:55 2015, options follow:

sim-outorder: This simulator implements a very detailed out-of-order issue
superscalar processor with a two-level memory system and speculative
execution support.  This simulator is a performance simulator, tracking the
latency of all pipeline operations.

# -config                     # load configuration from a file
# -dumpconfig                 # dump configuration to a file
# -h                    false # print help message    
# -v                    false # verbose operation     
# -d                    false # enable debug message  
# -i                    false # start in Dlite debugger
-seed                       1 # random number generator seed (0 for timer seed)
# -q                    false # initialize and terminate immediately
# -chkpt               <null> # restore EIO trace execution from <fname>
# -redir:sim     ../results/11_01_min_fus/191.fma3d.spec_ref.eio.gz.out # redirect simulator output to file (non-interactive only)
# -redir:prog       /dev/null # redirect simulated program output to file
-nice                       0 # simulator scheduling priority
-freq            600000000.0000 # frequency             
-max:inst           100000000 # maximum number of inst's to execute
-fastfwd                    0 # number of insts skipped before timing starts
# -ptrace              <null> # generate pipetrace, i.e., <fname|stdout|stderr> <range>
-fetch:ifqsize              4 # instruction fetch queue size (in insts)
-fetch:mplat                3 # extra branch mis-prediction latency
-fetch:speed                1 # speed of front-end of machine relative to execution core
-bpred                perfect # branch predictor type {nottaken|taken|perfect|bimod|2lev|comb}
-bpred:bimod     2048 # bimodal predictor config (<table size>)
-bpred:2lev      1 16384 4 0 # 2-level predictor config (<l1size> <l2size> <hist_size> <xor>)
-bpred:comb      1024 # combining predictor config (<meta_table_size>)
-bpred:ras                  8 # return address stack size (0 for no return stack)
-bpred:btb       512 4 # BTB config (<num_sets> <associativity>)
# -bpred:spec_update       <null> # speculative predictors update in {ID|WB} (default non-spec)
-decode:width               4 # instruction decode B/W (insts/cycle)
-issue:width                4 # instruction issue B/W (insts/cycle)
-issue:inorder          false # run pipeline with in-order issue
-issue:wrongpath         true # issue instructions down wrong execution paths
-commit:width               4 # instruction commit B/W (insts/cycle)
-ruu:size                  16 # register update unit (RUU) size
-lsq:size                   8 # load/store queue (LSQ) size
-cache:dl1       dl1:32:64:8:f # l1 data cache config, i.e., {<config>|none}
-cache:dl1lat               1 # l1 data cache hit latency (in cycles)
-cache:dl2       dl2:256:64:8:f # l2 data cache config, i.e., {<config>|none}
-cache:dl2lat               2 # l2 data cache hit latency (in cycles)
-cache:il1       il1:32:64:8:f # l1 inst cache config, i.e., {<config>|dl1|dl2|none}
-cache:il1lat               1 # l1 instruction cache hit latency (in cycles)
-cache:il2                dl2 # l2 instruction cache config, i.e., {<config>|dl2|none}
-cache:il2lat               2 # l2 instruction cache hit latency (in cycles)
-cache:flush            false # flush caches on system calls
-cache:icompress        false # convert 64-bit inst addresses to 32-bit inst equivalents
-mem:lat         103 1 # memory access latency (<first_chunk> <inter_chunk>)
-mem:width                  8 # memory access bus width (in bytes)
-tlb:itlb        itlb:16:4096:4:l # instruction TLB config, i.e., {<config>|none}
-tlb:dtlb        dtlb:32:4096:4:l # data TLB config, i.e., {<config>|none}
-tlb:lat                   30 # inst/data TLB miss latency (in cycles)
-res:ialu                   1 # total number of integer ALU's available
-res:imult                  1 # total number of integer multiplier/dividers available
-res:memport                1 # total number of memory system ports available (to CPU)
-res:fpalu                  1 # total number of floating point ALU's available
-res:fpmult                 1 # total number of floating point multiplier/dividers available
# -pcstat              <null> # profile stat(s) against text addr's (mult uses ok)
-bugcompat              false # operate in backward-compatible bugs mode (for testing only)

  Pipetrace range arguments are formatted as follows:

    {{@|#}<start>}:{{@|#|+}<end>}

  Both ends of the range are optional, if neither are specified, the entire
  execution is traced.  Ranges that start with a `@' designate an address
  range to be traced, those that start with an `#' designate a cycle count
  range.  All other range values represent an instruction count range.  The
  second argument, if specified with a `+', indicates a value relative
  to the first argument, e.g., 1000:+100 == 1000:1100.  Program symbols may
  be used in all contexts.

    Examples:   -ptrace FOO.trc #0:#1000
                -ptrace BAR.trc @2000:
                -ptrace BLAH.trc :1500
                -ptrace UXXE.trc :
                -ptrace FOOBAR.trc @main:+278

  Branch predictor configuration examples for 2-level predictor:
    Configurations:   N, M, W, X
      N   # entries in first level (# of shift register(s))
      W   width of shift register(s)
      M   # entries in 2nd level (# of counters, or other FSM)
      X   (yes-1/no-0) xor history and address for 2nd level index
    Sample predictors:
      GAg     : 1, W, 2^W, 0
      GAp     : 1, W, M (M > 2^W), 0
      PAg     : N, W, 2^W, 0
      PAp     : N, W, M (M == 2^(N+W)), 0
      gshare  : 1, W, 2^W, 1
  Predictor `comb' combines a bimodal and a 2-level predictor.

  The cache config parameter <config> has the following format:

    <name>:<nsets>:<bsize>:<assoc>:<repl>

    <name>   - name of the cache being defined
    <nsets>  - number of sets in the cache
    <bsize>  - block size of the cache
    <assoc>  - associativity of the cache
    <repl>   - block replacement strategy, 'l'-LRU, 'f'-FIFO, 'r'-random

    Examples:   -cache:dl1 dl1:4096:32:1:l
                -dtlb dtlb:128:4096:32:r

  Cache levels can be unified by pointing a level of the instruction cache
  hierarchy at the data cache hiearchy using the "dl1" and "dl2" cache
  configuration arguments.  Most sensible combinations are supported, e.g.,

    A unified l2 cache (il2 is pointed at dl2):
      -cache:il1 il1:128:64:1:l -cache:il2 dl2
      -cache:dl1 dl1:256:32:1:l -cache:dl2 ul2:1024:64:2:l

    Or, a fully unified cache hierarchy (il1 pointed at dl1):
      -cache:il1 dl1
      -cache:dl1 ul1:256:32:1:l -cache:dl2 ul2:1024:64:2:l



sim: ** starting performance simulation **

sim: ** simulation statistics **
sim_num_insn              100000001 # total number of instructions committed
sim_num_refs               45680044 # total number of loads and stores committed
sim_num_loads              29662891 # total number of loads committed
sim_num_stores         16017153.0000 # total number of stores committed
sim_num_branches            2494454 # total number of branches committed
sim_elapsed_time                146 # total simulation time in seconds
sim_inst_rate           684931.5137 # simulation speed (in insts/sec)
sim_total_insn            100000001 # total number of instructions executed
sim_total_refs             45680044 # total number of loads and stores executed
sim_total_loads            29662891 # total number of loads executed
sim_total_stores       16017153.0000 # total number of stores executed
sim_total_branches          2494454 # total number of branches executed
sim_cycle                 104961581 # total simulation time in cycles
sim_IPC                      0.9527 # instructions per cycle
sim_CPI                      1.0496 # cycles per instruction
sim_exec_BW                  0.9527 # total instructions (mis-spec + committed) per cycle
sim_IPB                     40.0889 # instruction per branch
IFQ_count                 401007751 # cumulative IFQ occupancy
IFQ_fcount                 99178086 # cumulative IFQ full count
ifq_occupancy                3.8205 # avg IFQ occupancy (insn's)
ifq_rate                     0.9527 # avg IFQ dispatch rate (insn/cycle)
ifq_latency                  4.0101 # avg IFQ occupant latency (cycle's)
ifq_full                     0.9449 # fraction of time (cycle's) IFQ was full
RUU_count                1471758404 # cumulative RUU occupancy
RUU_fcount                 57125668 # cumulative RUU full count
ruu_occupancy               14.0219 # avg RUU occupancy (insn's)
ruu_rate                     0.9527 # avg RUU dispatch rate (insn/cycle)
ruu_latency                 14.7176 # avg RUU occupant latency (cycle's)
ruu_full                     0.5443 # fraction of time (cycle's) RUU was full
LSQ_count                 663500332 # cumulative LSQ occupancy
LSQ_fcount                 44758157 # cumulative LSQ full count
lsq_occupancy                6.3214 # avg LSQ occupancy (insn's)
lsq_rate                     0.9527 # avg LSQ dispatch rate (insn/cycle)
lsq_latency                  6.6350 # avg LSQ occupant latency (cycle's)
lsq_full                     0.4264 # fraction of time (cycle's) LSQ was full
sim_slip                 2280938600 # total number of slip cycles
avg_sim_slip                22.8094 # the average slip between issue and retirement
il1.accesses              106001254 # total number of accesses
il1.hits                  104306034 # total number of hits
il1.misses                  1695220 # total number of misses
il1.replacements            1694972 # total number of replacements
il1.writebacks                    0 # total number of writebacks
il1.invalidations                 0 # total number of invalidations
il1.miss_rate                0.0160 # miss rate (i.e., misses/ref)
il1.repl_rate                0.0160 # replacement rate (i.e., repls/ref)
il1.wb_rate                  0.0000 # writeback rate (i.e., wrbks/ref)
il1.inv_rate                 0.0000 # invalidation rate (i.e., invs/ref)
dl1.accesses               45410782 # total number of accesses
dl1.hits                   44882611 # total number of hits
dl1.misses                   528171 # total number of misses
dl1.replacements             527915 # total number of replacements
dl1.writebacks               299172 # total number of writebacks
dl1.invalidations                 0 # total number of invalidations
dl1.miss_rate                0.0116 # miss rate (i.e., misses/ref)
dl1.repl_rate                0.0116 # replacement rate (i.e., repls/ref)
dl1.wb_rate                  0.0066 # writeback rate (i.e., wrbks/ref)
dl1.inv_rate                 0.0000 # invalidation rate (i.e., invs/ref)
dl2.accesses                2522563 # total number of accesses
dl2.hits                    2176902 # total number of hits
dl2.misses                   345661 # total number of misses
dl2.replacements             343613 # total number of replacements
dl2.writebacks               181470 # total number of writebacks
dl2.invalidations                 0 # total number of invalidations
dl2.miss_rate                0.1370 # miss rate (i.e., misses/ref)
dl2.repl_rate                0.1362 # replacement rate (i.e., repls/ref)
dl2.wb_rate                  0.0719 # writeback rate (i.e., wrbks/ref)
dl2.inv_rate                 0.0000 # invalidation rate (i.e., invs/ref)
itlb.accesses             106001254 # total number of accesses
itlb.hits                 106001244 # total number of hits
itlb.misses                      10 # total number of misses
itlb.replacements                 0 # total number of replacements
itlb.writebacks                   0 # total number of writebacks
itlb.invalidations                0 # total number of invalidations
itlb.miss_rate               0.0000 # miss rate (i.e., misses/ref)
itlb.repl_rate               0.0000 # replacement rate (i.e., repls/ref)
itlb.wb_rate                 0.0000 # writeback rate (i.e., wrbks/ref)
itlb.inv_rate                0.0000 # invalidation rate (i.e., invs/ref)
dtlb.accesses              45680037 # total number of accesses
dtlb.hits                  45668542 # total number of hits
dtlb.misses                   11495 # total number of misses
dtlb.replacements             11367 # total number of replacements
dtlb.writebacks                   0 # total number of writebacks
dtlb.invalidations                0 # total number of invalidations
dtlb.miss_rate               0.0003 # miss rate (i.e., misses/ref)
dtlb.repl_rate               0.0002 # replacement rate (i.e., repls/ref)
dtlb.wb_rate                 0.0000 # writeback rate (i.e., wrbks/ref)
dtlb.inv_rate                0.0000 # invalidation rate (i.e., invs/ref)
rename_power           43870318.2827 # total power usage of rename unit
bpred_power            350203110.3032 # total power usage of bpred unit
window_power           231368851.0986 # total power usage of instruction window
lsq_power              45154492.0198 # total power usage of load/store queue
regfile_power          374972319.6687 # total power usage of arch. regfile
icache_power           318302612.6616 # total power usage of icache
dcache_power           337907844.7265 # total power usage of dcache
dcache2_power          325693348.0903 # total power usage of dcache2
alu_power              497023930.1691 # total power usage of alu
falu_power             374740264.2991 # total power usage of falu
resultbus_power        92903487.5694 # total power usage of resultbus
clock_power            2000280486.5925 # total power usage of clock
avg_rename_power             0.4180 # avg power usage of rename unit
avg_bpred_power              3.3365 # avg power usage of bpred unit
avg_window_power             2.2043 # avg power usage of instruction window
avg_lsq_power                0.4302 # avg power usage of lsq
avg_regfile_power            3.5725 # avg power usage of arch. regfile
avg_icache_power             3.0326 # avg power usage of icache
avg_dcache_power             3.2193 # avg power usage of dcache
avg_dcache2_power            3.1030 # avg power usage of dcache2
avg_alu_power                4.7353 # avg power usage of alu
avg_falu_power               3.5703 # avg power usage of falu
avg_resultbus_power          0.8851 # avg power usage of resultbus
avg_clock_power             19.0573 # avg power usage of clock
fetch_stage_power      668505722.9648 # total power usage of fetch stage
dispatch_stage_power   43870318.2827 # total power usage of dispatch stage
issue_stage_power      1530051953.6737 # total power usage of issue stage
avg_fetch_power              6.3691 # average power of fetch unit per cycle
avg_dispatch_power           0.4180 # average power of dispatch unit per cycle
avg_issue_power             14.5773 # average power of issue unit per cycle
total_power            4617680801.1824 # total power per cycle
avg_total_power_cycle       43.9940 # average total power per cycle
avg_total_power_cycle_nofp_nod2      37.3208 # average total power per cycle
avg_total_power_insn        46.1768 # average total power per insn
avg_total_power_insn_nofp_nod2      39.1725 # average total power per insn
rename_power_cc1       20762358.6444 # total power usage of rename unit_cc1
bpred_power_cc1              0.0000 # total power usage of bpred unit_cc1
window_power_cc1       150214228.3152 # total power usage of instruction window_cc1
lsq_power_cc1          10148375.6254 # total power usage of lsq_cc1
regfile_power_cc1      170823617.8624 # total power usage of arch. regfile_cc1
icache_power_cc1       151152801.6360 # total power usage of icache_cc1
dcache_power_cc1       146193105.3627 # total power usage of dcache_cc1
dcache2_power_cc1      7827454.3951 # total power usage of dcache2_cc1
alu_power_cc1          170041394.2542 # total power usage of alu_cc1
resultbus_power_cc1    59083341.9356 # total power usage of resultbus_cc1
clock_power_cc1        765650954.2306 # total power usage of clock_cc1
avg_rename_power_cc1         0.1978 # avg power usage of rename unit_cc1
avg_bpred_power_cc1          0.0000 # avg power usage of bpred unit_cc1
avg_window_power_cc1         1.4311 # avg power usage of instruction window_cc1
avg_lsq_power_cc1            0.0967 # avg power usage of lsq_cc1
avg_regfile_power_cc1        1.6275 # avg power usage of arch. regfile_cc1
avg_icache_power_cc1         1.4401 # avg power usage of icache_cc1
avg_dcache_power_cc1         1.3928 # avg power usage of dcache_cc1
avg_dcache2_power_cc1        0.0746 # avg power usage of dcache2_cc1
avg_alu_power_cc1            1.6200 # avg power usage of alu_cc1
avg_resultbus_power_cc1       0.5629 # avg power usage of resultbus_cc1
avg_clock_power_cc1          7.2946 # avg power usage of clock_cc1
fetch_stage_power_cc1  151152801.6360 # total power usage of fetch stage_cc1
dispatch_stage_power_cc1 20762358.6444 # total power usage of dispatch stage_cc1
issue_stage_power_cc1  543507899.8882 # total power usage of issue stage_cc1
avg_fetch_power_cc1          1.4401 # average power of fetch unit per cycle_cc1
avg_dispatch_power_cc1       0.1978 # average power of dispatch unit per cycle_cc1
avg_issue_power_cc1          5.1782 # average power of issue unit per cycle_cc1
total_power_cycle_cc1  1651897632.2617 # total power per cycle_cc1
avg_total_power_cycle_cc1      15.7381 # average total power per cycle_cc1
avg_total_power_insn_cc1      16.5190 # average total power per insn_cc1
rename_power_cc2       10449137.2712 # total power usage of rename unit_cc2
bpred_power_cc2              0.0000 # total power usage of bpred unit_cc2
window_power_cc2       87402273.1908 # total power usage of instruction window_cc2
lsq_power_cc2          10148375.6254 # total power usage of lsq_cc2
regfile_power_cc2      51391061.1643 # total power usage of arch. regfile_cc2
icache_power_cc2       151152801.6360 # total power usage of icache_cc2
dcache_power_cc2       146193105.3627 # total power usage of dcache_cc2
dcache2_power_cc2      7827454.3951 # total power usage of dcache2_cc2
alu_power_cc2          199366996.5367 # total power usage of alu_cc2
resultbus_power_cc2    26381058.3252 # total power usage of resultbus_cc2
clock_power_cc2        594815455.2258 # total power usage of clock_cc2
avg_rename_power_cc2         0.0996 # avg power usage of rename unit_cc2
avg_bpred_power_cc2          0.0000 # avg power usage of bpred unit_cc2
avg_window_power_cc2         0.8327 # avg power usage of instruction window_cc2
avg_lsq_power_cc2            0.0967 # avg power usage of instruction lsq_cc2
avg_regfile_power_cc2        0.4896 # avg power usage of arch. regfile_cc2
avg_icache_power_cc2         1.4401 # avg power usage of icache_cc2
avg_dcache_power_cc2         1.3928 # avg power usage of dcache_cc2
avg_dcache2_power_cc2        0.0746 # avg power usage of dcache2_cc2
avg_alu_power_cc2            1.8994 # avg power usage of alu_cc2
avg_resultbus_power_cc2       0.2513 # avg power usage of resultbus_cc2
avg_clock_power_cc2          5.6670 # avg power usage of clock_cc2
fetch_stage_power_cc2  151152801.6360 # total power usage of fetch stage_cc2
dispatch_stage_power_cc2 10449137.2712 # total power usage of dispatch stage_cc2
issue_stage_power_cc2  477319263.4360 # total power usage of issue stage_cc2
avg_fetch_power_cc2          1.4401 # average power of fetch unit per cycle_cc2
avg_dispatch_power_cc2       0.0996 # average power of dispatch unit per cycle_cc2
avg_issue_power_cc2          4.5476 # average power of issue unit per cycle_cc2
total_power_cycle_cc2  1285127718.7332 # total power per cycle_cc2
avg_total_power_cycle_cc2      12.2438 # average total power per cycle_cc2
avg_total_power_insn_cc2      12.8513 # average total power per insn_cc2
rename_power_cc3       12759933.2224 # total power usage of rename unit_cc3
bpred_power_cc3        35020311.0355 # total power usage of bpred unit_cc3
window_power_cc3       93957697.5060 # total power usage of instruction window_cc3
lsq_power_cc3          13606016.7431 # total power usage of lsq_cc3
regfile_power_cc3      69508380.1014 # total power usage of arch. regfile_cc3
icache_power_cc3       167867782.6709 # total power usage of icache_cc3
dcache_power_cc3       166494090.4092 # total power usage of dcache_cc3
dcache2_power_cc3      39714024.6490 # total power usage of dcache2_cc3
alu_power_cc3          232065250.4876 # total power usage of alu_cc3
resultbus_power_cc3    29369489.2620 # total power usage of resultbus_cc3
clock_power_cc3        715530011.7746 # total power usage of clock_cc3
avg_rename_power_cc3         0.1216 # avg power usage of rename unit_cc3
avg_bpred_power_cc3          0.3336 # avg power usage of bpred unit_cc3
avg_window_power_cc3         0.8952 # avg power usage of instruction window_cc3
avg_lsq_power_cc3            0.1296 # avg power usage of instruction lsq_cc3
avg_regfile_power_cc3        0.6622 # avg power usage of arch. regfile_cc3
avg_icache_power_cc3         1.5993 # avg power usage of icache_cc3
avg_dcache_power_cc3         1.5862 # avg power usage of dcache_cc3
avg_dcache2_power_cc3        0.3784 # avg power usage of dcache2_cc3
avg_alu_power_cc3            2.2110 # avg power usage of alu_cc3
avg_resultbus_power_cc3       0.2798 # avg power usage of resultbus_cc3
avg_clock_power_cc3          6.8171 # avg power usage of clock_cc3
fetch_stage_power_cc3  202888093.7064 # total power usage of fetch stage_cc3
dispatch_stage_power_cc3 12759933.2224 # total power usage of dispatch stage_cc3
issue_stage_power_cc3  575206569.0569 # total power usage of issue stage_cc3
avg_fetch_power_cc3          1.9330 # average power of fetch unit per cycle_cc3
avg_dispatch_power_cc3       0.1216 # average power of dispatch unit per cycle_cc3
avg_issue_power_cc3          5.4802 # average power of issue unit per cycle_cc3
total_power_cycle_cc3  1575892987.8616 # total power per cycle_cc3
avg_total_power_cycle_cc3      15.0140 # average total power per cycle_cc3
avg_total_power_insn_cc3      15.7589 # average total power per insn_cc3
total_rename_access       100000001 # total number accesses of rename unit
total_bpred_access                0 # total number accesses of bpred unit
total_window_access       409829202 # total number accesses of instruction window
total_lsq_access           45949292 # total number accesses of load/store queue
total_regfile_access      196934454 # total number accesses of arch. regfile
total_icache_access       106001254 # total number accesses of icache
total_dcache_access        45410782 # total number accesses of dcache
total_dcache2_access        2522563 # total number accesses of dcache2
total_alu_access           99729987 # total number accesses of alu
total_resultbus_access    127168420 # total number accesses of resultbus
avg_rename_access            0.9527 # avg number accesses of rename unit
avg_bpred_access             0.0000 # avg number accesses of bpred unit
avg_window_access            3.9046 # avg number accesses of instruction window
avg_lsq_access               0.4378 # avg number accesses of lsq
avg_regfile_access           1.8763 # avg number accesses of arch. regfile
avg_icache_access            1.0099 # avg number accesses of icache
avg_dcache_access            0.4326 # avg number accesses of dcache
avg_dcache2_access           0.0240 # avg number accesses of dcache2
avg_alu_access               0.9502 # avg number accesses of alu
avg_resultbus_access         1.2116 # avg number accesses of resultbus
max_rename_access                 4 # max number accesses of rename unit
max_bpred_access                  0 # max number accesses of bpred unit
max_window_access                16 # max number accesses of instruction window
max_lsq_access                    3 # max number accesses of load/store queue
max_regfile_access               12 # max number accesses of arch. regfile
max_icache_access                 4 # max number accesses of icache
max_dcache_access                 2 # max number accesses of dcache
max_dcache2_access                4 # max number accesses of dcache2
max_alu_access                    3 # max number accesses of alu
max_resultbus_access              7 # max number accesses of resultbus
max_cycle_power_cc1         29.2506 # maximum cycle power usage of cc1
max_cycle_power_cc2         30.9515 # maximum cycle power usage of cc2
max_cycle_power_cc3         32.4504 # maximum cycle power usage of cc3
sim_invalid_addrs                 0 # total non-speculative bogus addresses seen (debug var)
ld_text_base           0x0120000000 # program text (code) segment base
ld_text_size                1867776 # program text (code) size in bytes
ld_data_base           0x0140000000 # program initialized data segment base
ld_data_size                 373328 # program init'ed `.data' and uninit'ed `.bss' size in bytes
ld_stack_base          0x011ff9b000 # program stack segment base (highest address in stack)
ld_stack_size                 16384 # program initial stack size
ld_prog_entry          0x0120069a70 # program entry point (initial PC)
ld_environ_base        0x011ff96440 # program environment base address address
ld_target_big_endian              0 # target executable endian-ness, non-zero if big endian
mem.page_count                13429 # total number of pages allocated
mem.page_mem                107432k # total size of memory pages allocated
mem.ptab_misses              283628 # total first level page table misses
mem.ptab_accesses        1146875644 # total page table accesses
mem.ptab_miss_rate           0.0002 # first level page table miss rate

