sim-outorder: SimpleScalar/Alpha Tool Set version 3.0 of August, 2003.
Copyright (c) 1994-2003 by Todd M. Austin, Ph.D. and SimpleScalar, LLC.
All Rights Reserved. This version of SimpleScalar is licensed for academic
non-commercial use.  No portion of this work may be used by any commercial
entity, or for any commercial purpose, without the prior written permission
of SimpleScalar, LLC (info@simplescalar.com).


Processor Parameters:
Issue Width: 4
Window Size: 16
Number of Virtual Registers: 32
Number of Physical Registers: 16
Datapath Width: 64
Total Power Consumption: 45.994
Branch Predictor Power Consumption: 3.33649  (7.58%)
 branch target buffer power (W): 2.49493
 local predict power (W): 0.574771
 global predict power (W): 0.0996078
 chooser power (W): 0.0702439
 RAS power (W): 0.0969383
Rename Logic Power Consumption: 0.417965  (0.95%)
 Instruction Decode Power (W): 0.0159915
 RAT decode_power (W): 0.113514
 RAT wordline_power (W): 0.0307815
 RAT bitline_power (W): 0.246771
 DCL Comparators (W): 0.0109075
Instruction Window Power Consumption: 2.20432  (5.01%)
 tagdrive (W): 0.0943488
 tagmatch (W): 0.033695
 Selection Logic (W): 0.0134217
 decode_power (W): 0.0532503
 wordline_power (W): 0.0844643
 bitline_power (W): 1.92514
Load/Store Queue Power Consumption: 0.4302  (0.978%)
 tagdrive (W): 0.220308
 tagmatch (W): 0.0487252
 decode_power (W): 0.00399788
 wordline_power (W): 0.00584427
 bitline_power (W): 0.151325
Arch. Register File Power Consumption: 3.57247  (8.12%)
 decode_power (W): 0.113514
 wordline_power (W): 0.0844643
 bitline_power (W): 3.37449
Result Bus Power Consumption: 0.885119  (2.01%)
Total Clock Power: 19.0573  (43.3%)
Int ALU Power: 1.16503  (2.65%)
FP ALU Power: 3.57026  (8.12%)
Instruction Cache Power Consumption: 2.76773  (6.29%)
 decode_power (W): 0.151353
 wordline_power (W): 0.180479
 bitline_power (W): 1.42251
 senseamp_power (W): 0.768
 tagarray_power (W): 0.245382
Itlb_power (W): 0.264834 (0.602%)
Data Cache Power Consumption: 2.76773  (6.29%)
 decode_power (W): 0.151353
 wordline_power (W): 0.180479
 bitline_power (W): 1.42251
 senseamp_power (W): 0.768
 tagarray_power (W): 0.245382
Dtlb_power (W): 0.451619 (1.03%)
Level 2 Cache Power Consumption: 3.10298 (7.05%)
 decode_power (W): 0.19487
 wordline_power (W): 0.0430878
 bitline_power (W): 1.77274
 senseamp_power (W): 0.192
 tagarray_power (W): 0.900275
sim: loading EIO file: ../benchmarks/253.perlbmk.perfect-ref.eio.gz
sim: command line: ./sim-outorder -config ../configs/current.config ../benchmarks/253.perlbmk.perfect-ref.eio.gz 

sim: simulation started @ Mon Nov 23 20:40:47 2015, options follow:

sim-outorder: This simulator implements a very detailed out-of-order issue
superscalar processor with a two-level memory system and speculative
execution support.  This simulator is a performance simulator, tracking the
latency of all pipeline operations.

# -config                     # load configuration from a file
# -dumpconfig                 # dump configuration to a file
# -h                    false # print help message    
# -v                    false # verbose operation     
# -d                    false # enable debug message  
# -i                    false # start in Dlite debugger
-seed                       1 # random number generator seed (0 for timer seed)
# -q                    false # initialize and terminate immediately
# -chkpt               <null> # restore EIO trace execution from <fname>
# -redir:sim     ../results/11_01_min_fus/253.perlbmk.perfect-ref.eio.gz.out # redirect simulator output to file (non-interactive only)
# -redir:prog       /dev/null # redirect simulated program output to file
-nice                       0 # simulator scheduling priority
-freq            600000000.0000 # frequency             
-max:inst           100000000 # maximum number of inst's to execute
-fastfwd                    0 # number of insts skipped before timing starts
# -ptrace              <null> # generate pipetrace, i.e., <fname|stdout|stderr> <range>
-fetch:ifqsize              4 # instruction fetch queue size (in insts)
-fetch:mplat                3 # extra branch mis-prediction latency
-fetch:speed                1 # speed of front-end of machine relative to execution core
-bpred                perfect # branch predictor type {nottaken|taken|perfect|bimod|2lev|comb}
-bpred:bimod     2048 # bimodal predictor config (<table size>)
-bpred:2lev      1 16384 4 0 # 2-level predictor config (<l1size> <l2size> <hist_size> <xor>)
-bpred:comb      1024 # combining predictor config (<meta_table_size>)
-bpred:ras                  8 # return address stack size (0 for no return stack)
-bpred:btb       512 4 # BTB config (<num_sets> <associativity>)
# -bpred:spec_update       <null> # speculative predictors update in {ID|WB} (default non-spec)
-decode:width               4 # instruction decode B/W (insts/cycle)
-issue:width                4 # instruction issue B/W (insts/cycle)
-issue:inorder          false # run pipeline with in-order issue
-issue:wrongpath         true # issue instructions down wrong execution paths
-commit:width               4 # instruction commit B/W (insts/cycle)
-ruu:size                  16 # register update unit (RUU) size
-lsq:size                   8 # load/store queue (LSQ) size
-cache:dl1       dl1:32:64:8:f # l1 data cache config, i.e., {<config>|none}
-cache:dl1lat               1 # l1 data cache hit latency (in cycles)
-cache:dl2       dl2:256:64:8:f # l2 data cache config, i.e., {<config>|none}
-cache:dl2lat               2 # l2 data cache hit latency (in cycles)
-cache:il1       il1:32:64:8:f # l1 inst cache config, i.e., {<config>|dl1|dl2|none}
-cache:il1lat               1 # l1 instruction cache hit latency (in cycles)
-cache:il2                dl2 # l2 instruction cache config, i.e., {<config>|dl2|none}
-cache:il2lat               2 # l2 instruction cache hit latency (in cycles)
-cache:flush            false # flush caches on system calls
-cache:icompress        false # convert 64-bit inst addresses to 32-bit inst equivalents
-mem:lat         103 1 # memory access latency (<first_chunk> <inter_chunk>)
-mem:width                  8 # memory access bus width (in bytes)
-tlb:itlb        itlb:16:4096:4:l # instruction TLB config, i.e., {<config>|none}
-tlb:dtlb        dtlb:32:4096:4:l # data TLB config, i.e., {<config>|none}
-tlb:lat                   30 # inst/data TLB miss latency (in cycles)
-res:ialu                   1 # total number of integer ALU's available
-res:imult                  1 # total number of integer multiplier/dividers available
-res:memport                1 # total number of memory system ports available (to CPU)
-res:fpalu                  1 # total number of floating point ALU's available
-res:fpmult                 1 # total number of floating point multiplier/dividers available
# -pcstat              <null> # profile stat(s) against text addr's (mult uses ok)
-bugcompat              false # operate in backward-compatible bugs mode (for testing only)

  Pipetrace range arguments are formatted as follows:

    {{@|#}<start>}:{{@|#|+}<end>}

  Both ends of the range are optional, if neither are specified, the entire
  execution is traced.  Ranges that start with a `@' designate an address
  range to be traced, those that start with an `#' designate a cycle count
  range.  All other range values represent an instruction count range.  The
  second argument, if specified with a `+', indicates a value relative
  to the first argument, e.g., 1000:+100 == 1000:1100.  Program symbols may
  be used in all contexts.

    Examples:   -ptrace FOO.trc #0:#1000
                -ptrace BAR.trc @2000:
                -ptrace BLAH.trc :1500
                -ptrace UXXE.trc :
                -ptrace FOOBAR.trc @main:+278

  Branch predictor configuration examples for 2-level predictor:
    Configurations:   N, M, W, X
      N   # entries in first level (# of shift register(s))
      W   width of shift register(s)
      M   # entries in 2nd level (# of counters, or other FSM)
      X   (yes-1/no-0) xor history and address for 2nd level index
    Sample predictors:
      GAg     : 1, W, 2^W, 0
      GAp     : 1, W, M (M > 2^W), 0
      PAg     : N, W, 2^W, 0
      PAp     : N, W, M (M == 2^(N+W)), 0
      gshare  : 1, W, 2^W, 1
  Predictor `comb' combines a bimodal and a 2-level predictor.

  The cache config parameter <config> has the following format:

    <name>:<nsets>:<bsize>:<assoc>:<repl>

    <name>   - name of the cache being defined
    <nsets>  - number of sets in the cache
    <bsize>  - block size of the cache
    <assoc>  - associativity of the cache
    <repl>   - block replacement strategy, 'l'-LRU, 'f'-FIFO, 'r'-random

    Examples:   -cache:dl1 dl1:4096:32:1:l
                -dtlb dtlb:128:4096:32:r

  Cache levels can be unified by pointing a level of the instruction cache
  hierarchy at the data cache hiearchy using the "dl1" and "dl2" cache
  configuration arguments.  Most sensible combinations are supported, e.g.,

    A unified l2 cache (il2 is pointed at dl2):
      -cache:il1 il1:128:64:1:l -cache:il2 dl2
      -cache:dl1 dl1:256:32:1:l -cache:dl2 ul2:1024:64:2:l

    Or, a fully unified cache hierarchy (il1 pointed at dl1):
      -cache:il1 dl1
      -cache:dl1 ul1:256:32:1:l -cache:dl2 ul2:1024:64:2:l



sim: ** starting performance simulation **

sim: ** simulation statistics **
sim_num_insn              100000002 # total number of instructions committed
sim_num_refs               46911511 # total number of loads and stores committed
sim_num_loads              35114075 # total number of loads committed
sim_num_stores         11797436.0000 # total number of stores committed
sim_num_branches           13244301 # total number of branches committed
sim_elapsed_time                141 # total simulation time in seconds
sim_inst_rate           709219.8723 # simulation speed (in insts/sec)
sim_total_insn            100000002 # total number of instructions executed
sim_total_refs             46911511 # total number of loads and stores executed
sim_total_loads            35114075 # total number of loads executed
sim_total_stores       11797436.0000 # total number of stores executed
sim_total_branches         13244301 # total number of branches executed
sim_cycle                  99287353 # total simulation time in cycles
sim_IPC                      1.0072 # instructions per cycle
sim_CPI                      0.9929 # cycles per instruction
sim_exec_BW                  1.0072 # total instructions (mis-spec + committed) per cycle
sim_IPB                      7.5504 # instruction per branch
IFQ_count                 397118678 # cumulative IFQ occupancy
IFQ_fcount                 99279543 # cumulative IFQ full count
ifq_occupancy                3.9997 # avg IFQ occupancy (insn's)
ifq_rate                     1.0072 # avg IFQ dispatch rate (insn/cycle)
ifq_latency                  3.9712 # avg IFQ occupant latency (cycle's)
ifq_full                     0.9999 # fraction of time (cycle's) IFQ was full
RUU_count                1436895066 # cumulative RUU occupancy
RUU_fcount                 56705867 # cumulative RUU full count
ruu_occupancy               14.4721 # avg RUU occupancy (insn's)
ruu_rate                     1.0072 # avg RUU dispatch rate (insn/cycle)
ruu_latency                 14.3690 # avg RUU occupant latency (cycle's)
ruu_full                     0.5711 # fraction of time (cycle's) RUU was full
LSQ_count                 686233652 # cumulative LSQ occupancy
LSQ_fcount                 46135299 # cumulative LSQ full count
lsq_occupancy                6.9116 # avg LSQ occupancy (insn's)
lsq_rate                     1.0072 # avg LSQ dispatch rate (insn/cycle)
lsq_latency                  6.8623 # avg LSQ occupant latency (cycle's)
lsq_full                     0.4647 # fraction of time (cycle's) LSQ was full
sim_slip                 2270040086 # total number of slip cycles
avg_sim_slip                22.7004 # the average slip between issue and retirement
il1.accesses              121202000 # total number of accesses
il1.hits                  121201929 # total number of hits
il1.misses                       71 # total number of misses
il1.replacements                  0 # total number of replacements
il1.writebacks                    0 # total number of writebacks
il1.invalidations                 0 # total number of invalidations
il1.miss_rate                0.0000 # miss rate (i.e., misses/ref)
il1.repl_rate                0.0000 # replacement rate (i.e., repls/ref)
il1.wb_rate                  0.0000 # writeback rate (i.e., wrbks/ref)
il1.inv_rate                 0.0000 # invalidation rate (i.e., invs/ref)
dl1.accesses               46855853 # total number of accesses
dl1.hits                   46855781 # total number of hits
dl1.misses                       72 # total number of misses
dl1.replacements                  0 # total number of replacements
dl1.writebacks                    0 # total number of writebacks
dl1.invalidations                 0 # total number of invalidations
dl1.miss_rate                0.0000 # miss rate (i.e., misses/ref)
dl1.repl_rate                0.0000 # replacement rate (i.e., repls/ref)
dl1.wb_rate                  0.0000 # writeback rate (i.e., wrbks/ref)
dl1.inv_rate                 0.0000 # invalidation rate (i.e., invs/ref)
dl2.accesses                    143 # total number of accesses
dl2.hits                          0 # total number of hits
dl2.misses                      143 # total number of misses
dl2.replacements                  0 # total number of replacements
dl2.writebacks                    0 # total number of writebacks
dl2.invalidations                 0 # total number of invalidations
dl2.miss_rate                1.0000 # miss rate (i.e., misses/ref)
dl2.repl_rate                0.0000 # replacement rate (i.e., repls/ref)
dl2.wb_rate                  0.0000 # writeback rate (i.e., wrbks/ref)
dl2.inv_rate                 0.0000 # invalidation rate (i.e., invs/ref)
itlb.accesses             121202000 # total number of accesses
itlb.hits                 121201992 # total number of hits
itlb.misses                       8 # total number of misses
itlb.replacements                 0 # total number of replacements
itlb.writebacks                   0 # total number of writebacks
itlb.invalidations                0 # total number of invalidations
itlb.miss_rate               0.0000 # miss rate (i.e., misses/ref)
itlb.repl_rate               0.0000 # replacement rate (i.e., repls/ref)
itlb.wb_rate                 0.0000 # writeback rate (i.e., wrbks/ref)
itlb.inv_rate                0.0000 # invalidation rate (i.e., invs/ref)
dtlb.accesses              46911504 # total number of accesses
dtlb.hits                  46911483 # total number of hits
dtlb.misses                      21 # total number of misses
dtlb.replacements                 0 # total number of replacements
dtlb.writebacks                   0 # total number of writebacks
dtlb.invalidations                0 # total number of invalidations
dtlb.miss_rate               0.0000 # miss rate (i.e., misses/ref)
dtlb.repl_rate               0.0000 # replacement rate (i.e., repls/ref)
dtlb.wb_rate                 0.0000 # writeback rate (i.e., wrbks/ref)
dtlb.inv_rate                0.0000 # invalidation rate (i.e., invs/ref)
rename_power           41498686.8153 # total power usage of rename unit
bpred_power            331271113.5798 # total power usage of bpred unit
window_power           218861040.1391 # total power usage of instruction window
lsq_power              42713438.0598 # total power usage of load/store queue
regfile_power          354701298.4753 # total power usage of arch. regfile
icache_power           301095158.6009 # total power usage of icache
dcache_power           319640530.7636 # total power usage of dcache
dcache2_power          308086350.2540 # total power usage of dcache2
alu_power              470154793.1310 # total power usage of alu
falu_power             354481788.0038 # total power usage of falu
resultbus_power        87881120.6911 # total power usage of resultbus
clock_power            1892145229.1505 # total power usage of clock
avg_rename_power             0.4180 # avg power usage of rename unit
avg_bpred_power              3.3365 # avg power usage of bpred unit
avg_window_power             2.2043 # avg power usage of instruction window
avg_lsq_power                0.4302 # avg power usage of lsq
avg_regfile_power            3.5725 # avg power usage of arch. regfile
avg_icache_power             3.0326 # avg power usage of icache
avg_dcache_power             3.2193 # avg power usage of dcache
avg_dcache2_power            3.1030 # avg power usage of dcache2
avg_alu_power                4.7353 # avg power usage of alu
avg_falu_power               3.5703 # avg power usage of falu
avg_resultbus_power          0.8851 # avg power usage of resultbus
avg_clock_power             19.0573 # avg power usage of clock
fetch_stage_power      632366272.1808 # total power usage of fetch stage
dispatch_stage_power   41498686.8153 # total power usage of dispatch stage
issue_stage_power      1447337273.0384 # total power usage of issue stage
avg_fetch_power              6.3691 # average power of fetch unit per cycle
avg_dispatch_power           0.4180 # average power of dispatch unit per cycle
avg_issue_power             14.5773 # average power of issue unit per cycle
total_power            4368048759.6602 # total power per cycle
avg_total_power_cycle       43.9940 # average total power per cycle
avg_total_power_cycle_nofp_nod2      37.3208 # average total power per cycle
avg_total_power_insn        43.6805 # average total power per insn
avg_total_power_insn_nofp_nod2      37.0548 # average total power per insn
rename_power_cc1       27538594.8391 # total power usage of rename unit_cc1
bpred_power_cc1              0.0000 # total power usage of bpred unit_cc1
window_power_cc1       195229864.0648 # total power usage of instruction window_cc1
lsq_power_cc1          11075332.1604 # total power usage of lsq_cc1
regfile_power_cc1      227594124.3014 # total power usage of arch. regfile_cc1
icache_power_cc1       199807364.6815 # total power usage of icache_cc1
dcache_power_cc1       150845291.6437 # total power usage of dcache_cc1
dcache2_power_cc1          443.7257 # total power usage of dcache2_cc1
alu_power_cc1          118243258.0557 # total power usage of alu_cc1
resultbus_power_cc1    74483406.8378 # total power usage of resultbus_cc1
clock_power_cc1        876173529.2612 # total power usage of clock_cc1
avg_rename_power_cc1         0.2774 # avg power usage of rename unit_cc1
avg_bpred_power_cc1          0.0000 # avg power usage of bpred unit_cc1
avg_window_power_cc1         1.9663 # avg power usage of instruction window_cc1
avg_lsq_power_cc1            0.1115 # avg power usage of lsq_cc1
avg_regfile_power_cc1        2.2923 # avg power usage of arch. regfile_cc1
avg_icache_power_cc1         2.0124 # avg power usage of icache_cc1
avg_dcache_power_cc1         1.5193 # avg power usage of dcache_cc1
avg_dcache2_power_cc1        0.0000 # avg power usage of dcache2_cc1
avg_alu_power_cc1            1.1909 # avg power usage of alu_cc1
avg_resultbus_power_cc1       0.7502 # avg power usage of resultbus_cc1
avg_clock_power_cc1          8.8246 # avg power usage of clock_cc1
fetch_stage_power_cc1  199807364.6815 # total power usage of fetch stage_cc1
dispatch_stage_power_cc1 27538594.8391 # total power usage of dispatch stage_cc1
issue_stage_power_cc1  549877596.4881 # total power usage of issue stage_cc1
avg_fetch_power_cc1          2.0124 # average power of fetch unit per cycle_cc1
avg_dispatch_power_cc1       0.2774 # average power of dispatch unit per cycle_cc1
avg_issue_power_cc1          5.5382 # average power of issue unit per cycle_cc1
total_power_cycle_cc1  1880991209.5713 # total power per cycle_cc1
avg_total_power_cycle_cc1      18.9449 # average total power per cycle_cc1
avg_total_power_insn_cc1      18.8099 # average total power per insn_cc1
rename_power_cc2       10449137.3755 # total power usage of rename unit_cc2
bpred_power_cc2              0.0000 # total power usage of bpred unit_cc2
window_power_cc2       85712483.2804 # total power usage of instruction window_cc2
lsq_power_cc2          11075332.1604 # total power usage of lsq_cc2
regfile_power_cc2      32415675.1192 # total power usage of arch. regfile_cc2
icache_power_cc2       199807364.6815 # total power usage of icache_cc2
dcache_power_cc2       150845291.6437 # total power usage of dcache_cc2
dcache2_power_cc2          443.7257 # total power usage of dcache2_cc2
alu_power_cc2          118243258.0557 # total power usage of alu_cc2
resultbus_power_cc2    25281852.1410 # total power usage of resultbus_cc2
clock_power_cc2        552679312.6327 # total power usage of clock_cc2
avg_rename_power_cc2         0.1052 # avg power usage of rename unit_cc2
avg_bpred_power_cc2          0.0000 # avg power usage of bpred unit_cc2
avg_window_power_cc2         0.8633 # avg power usage of instruction window_cc2
avg_lsq_power_cc2            0.1115 # avg power usage of instruction lsq_cc2
avg_regfile_power_cc2        0.3265 # avg power usage of arch. regfile_cc2
avg_icache_power_cc2         2.0124 # avg power usage of icache_cc2
avg_dcache_power_cc2         1.5193 # avg power usage of dcache_cc2
avg_dcache2_power_cc2        0.0000 # avg power usage of dcache2_cc2
avg_alu_power_cc2            1.1909 # avg power usage of alu_cc2
avg_resultbus_power_cc2       0.2546 # avg power usage of resultbus_cc2
avg_clock_power_cc2          5.5665 # avg power usage of clock_cc2
fetch_stage_power_cc2  199807364.6815 # total power usage of fetch stage_cc2
dispatch_stage_power_cc2 10449137.3755 # total power usage of dispatch stage_cc2
issue_stage_power_cc2  391158661.0068 # total power usage of issue stage_cc2
avg_fetch_power_cc2          2.0124 # average power of fetch unit per cycle_cc2
avg_dispatch_power_cc2       0.1052 # average power of dispatch unit per cycle_cc2
avg_issue_power_cc2          3.9397 # average power of issue unit per cycle_cc2
total_power_cycle_cc2  1186510150.8158 # total power per cycle_cc2
avg_total_power_cycle_cc2      11.9503 # average total power per cycle_cc2
avg_total_power_insn_cc2      11.8651 # average total power per insn_cc2
rename_power_cc3       11845146.5659 # total power usage of rename unit_cc3
bpred_power_cc3        33127111.3716 # total power usage of bpred unit_cc3
window_power_cc3       85836654.7889 # total power usage of instruction window_cc3
lsq_power_cc3          14213649.4161 # total power usage of lsq_cc3
regfile_power_cc3      42478930.3622 # total power usage of arch. regfile_cc3
icache_power_cc3       209936144.0291 # total power usage of icache_cc3
dcache_power_cc3       168853464.2019 # total power usage of dcache_cc3
dcache2_power_cc3      30809034.9097 # total power usage of dcache2_cc3
alu_power_cc3          153434411.9109 # total power usage of alu_cc3
resultbus_power_cc3    26125067.4644 # total power usage of resultbus_cc3
clock_power_cc3        650544613.9618 # total power usage of clock_cc3
avg_rename_power_cc3         0.1193 # avg power usage of rename unit_cc3
avg_bpred_power_cc3          0.3336 # avg power usage of bpred unit_cc3
avg_window_power_cc3         0.8645 # avg power usage of instruction window_cc3
avg_lsq_power_cc3            0.1432 # avg power usage of instruction lsq_cc3
avg_regfile_power_cc3        0.4278 # avg power usage of arch. regfile_cc3
avg_icache_power_cc3         2.1144 # avg power usage of icache_cc3
avg_dcache_power_cc3         1.7007 # avg power usage of dcache_cc3
avg_dcache2_power_cc3        0.3103 # avg power usage of dcache2_cc3
avg_alu_power_cc3            1.5454 # avg power usage of alu_cc3
avg_resultbus_power_cc3       0.2631 # avg power usage of resultbus_cc3
avg_clock_power_cc3          6.5521 # avg power usage of clock_cc3
fetch_stage_power_cc3  243063255.4007 # total power usage of fetch stage_cc3
dispatch_stage_power_cc3 11845146.5659 # total power usage of dispatch stage_cc3
issue_stage_power_cc3  479272282.6919 # total power usage of issue stage_cc3
avg_fetch_power_cc3          2.4481 # average power of fetch unit per cycle_cc3
avg_dispatch_power_cc3       0.1193 # average power of dispatch unit per cycle_cc3
avg_issue_power_cc3          4.8271 # average power of issue unit per cycle_cc3
total_power_cycle_cc3  1427204228.9826 # total power per cycle_cc3
avg_total_power_cycle_cc3      14.3745 # average total power per cycle_cc3
avg_total_power_insn_cc3      14.2720 # average total power per insn_cc3
total_rename_access       100000002 # total number accesses of rename unit
total_bpred_access                0 # total number accesses of bpred unit
total_window_access       388202695 # total number accesses of instruction window
total_lsq_access           46967155 # total number accesses of load/store queue
total_regfile_access      122815974 # total number accesses of arch. regfile
total_icache_access       121202000 # total number accesses of icache
total_dcache_access        46855853 # total number accesses of dcache
total_dcache2_access            143 # total number accesses of dcache2
total_alu_access           99999989 # total number accesses of alu
total_resultbus_access    121869758 # total number accesses of resultbus
avg_rename_access            1.0072 # avg number accesses of rename unit
avg_bpred_access             0.0000 # avg number accesses of bpred unit
avg_window_access            3.9099 # avg number accesses of instruction window
avg_lsq_access               0.4730 # avg number accesses of lsq
avg_regfile_access           1.2370 # avg number accesses of arch. regfile
avg_icache_access            1.2207 # avg number accesses of icache
avg_dcache_access            0.4719 # avg number accesses of dcache
avg_dcache2_access           0.0000 # avg number accesses of dcache2
avg_alu_access               1.0072 # avg number accesses of alu
avg_resultbus_access         1.2274 # avg number accesses of resultbus
max_rename_access                 4 # max number accesses of rename unit
max_bpred_access                  0 # max number accesses of bpred unit
max_window_access                11 # max number accesses of instruction window
max_lsq_access                    3 # max number accesses of load/store queue
max_regfile_access                8 # max number accesses of arch. regfile
max_icache_access                 4 # max number accesses of icache
max_dcache_access                 2 # max number accesses of dcache
max_dcache2_access                2 # max number accesses of dcache2
max_alu_access                    2 # max number accesses of alu
max_resultbus_access              4 # max number accesses of resultbus
max_cycle_power_cc1         26.4299 # maximum cycle power usage of cc1
max_cycle_power_cc2         19.7649 # maximum cycle power usage of cc2
max_cycle_power_cc3         21.4565 # maximum cycle power usage of cc3
sim_invalid_addrs                 0 # total non-speculative bogus addresses seen (debug var)
ld_text_base           0x0120000000 # program text (code) segment base
ld_text_size                 876544 # program text (code) size in bytes
ld_data_base           0x0140000000 # program initialized data segment base
ld_data_size                 131616 # program init'ed `.data' and uninit'ed `.bss' size in bytes
ld_stack_base          0x011ff9b000 # program stack segment base (highest address in stack)
ld_stack_size                 16384 # program initial stack size
ld_prog_entry          0x012004d4ec # program entry point (initial PC)
ld_environ_base        0x011ff96b60 # program environment base address address
ld_target_big_endian              0 # target executable endian-ness, non-zero if big endian
mem.page_count                  186 # total number of pages allocated
mem.page_mem                  1488k # total size of memory pages allocated
mem.ptab_misses                 210 # total first level page table misses
mem.ptab_accesses         925362176 # total page table accesses
mem.ptab_miss_rate           0.0000 # first level page table miss rate

