sim-outorder: SimpleScalar/Alpha Tool Set version 3.0 of August, 2003.
Copyright (c) 1994-2003 by Todd M. Austin, Ph.D. and SimpleScalar, LLC.
All Rights Reserved. This version of SimpleScalar is licensed for academic
non-commercial use.  No portion of this work may be used by any commercial
entity, or for any commercial purpose, without the prior written permission
of SimpleScalar, LLC (info@simplescalar.com).


Processor Parameters:
Issue Width: 4
Window Size: 16
Number of Virtual Registers: 32
Number of Physical Registers: 16
Datapath Width: 64
Total Power Consumption: 45.994
Branch Predictor Power Consumption: 3.33649  (7.58%)
 branch target buffer power (W): 2.49493
 local predict power (W): 0.574771
 global predict power (W): 0.0996078
 chooser power (W): 0.0702439
 RAS power (W): 0.0969383
Rename Logic Power Consumption: 0.417965  (0.95%)
 Instruction Decode Power (W): 0.0159915
 RAT decode_power (W): 0.113514
 RAT wordline_power (W): 0.0307815
 RAT bitline_power (W): 0.246771
 DCL Comparators (W): 0.0109075
Instruction Window Power Consumption: 2.20432  (5.01%)
 tagdrive (W): 0.0943488
 tagmatch (W): 0.033695
 Selection Logic (W): 0.0134217
 decode_power (W): 0.0532503
 wordline_power (W): 0.0844643
 bitline_power (W): 1.92514
Load/Store Queue Power Consumption: 0.4302  (0.978%)
 tagdrive (W): 0.220308
 tagmatch (W): 0.0487252
 decode_power (W): 0.00399788
 wordline_power (W): 0.00584427
 bitline_power (W): 0.151325
Arch. Register File Power Consumption: 3.57247  (8.12%)
 decode_power (W): 0.113514
 wordline_power (W): 0.0844643
 bitline_power (W): 3.37449
Result Bus Power Consumption: 0.885119  (2.01%)
Total Clock Power: 19.0573  (43.3%)
Int ALU Power: 1.16503  (2.65%)
FP ALU Power: 3.57026  (8.12%)
Instruction Cache Power Consumption: 2.76773  (6.29%)
 decode_power (W): 0.151353
 wordline_power (W): 0.180479
 bitline_power (W): 1.42251
 senseamp_power (W): 0.768
 tagarray_power (W): 0.245382
Itlb_power (W): 0.264834 (0.602%)
Data Cache Power Consumption: 2.76773  (6.29%)
 decode_power (W): 0.151353
 wordline_power (W): 0.180479
 bitline_power (W): 1.42251
 senseamp_power (W): 0.768
 tagarray_power (W): 0.245382
Dtlb_power (W): 0.451619 (1.03%)
Level 2 Cache Power Consumption: 3.10298 (7.05%)
 decode_power (W): 0.19487
 wordline_power (W): 0.0430878
 bitline_power (W): 1.77274
 senseamp_power (W): 0.192
 tagarray_power (W): 0.900275
sim: loading EIO file: ../benchmarks/255.vortex.one-ref.eio.gz
sim: command line: ./sim-outorder -config ../configs/current.config ../benchmarks/255.vortex.one-ref.eio.gz 

sim: simulation started @ Mon Nov 23 20:40:52 2015, options follow:

sim-outorder: This simulator implements a very detailed out-of-order issue
superscalar processor with a two-level memory system and speculative
execution support.  This simulator is a performance simulator, tracking the
latency of all pipeline operations.

# -config                     # load configuration from a file
# -dumpconfig                 # dump configuration to a file
# -h                    false # print help message    
# -v                    false # verbose operation     
# -d                    false # enable debug message  
# -i                    false # start in Dlite debugger
-seed                       1 # random number generator seed (0 for timer seed)
# -q                    false # initialize and terminate immediately
# -chkpt               <null> # restore EIO trace execution from <fname>
# -redir:sim     ../results/11_01_min_fus/255.vortex.one-ref.eio.gz.out # redirect simulator output to file (non-interactive only)
# -redir:prog       /dev/null # redirect simulated program output to file
-nice                       0 # simulator scheduling priority
-freq            600000000.0000 # frequency             
-max:inst           100000000 # maximum number of inst's to execute
-fastfwd                    0 # number of insts skipped before timing starts
# -ptrace              <null> # generate pipetrace, i.e., <fname|stdout|stderr> <range>
-fetch:ifqsize              4 # instruction fetch queue size (in insts)
-fetch:mplat                3 # extra branch mis-prediction latency
-fetch:speed                1 # speed of front-end of machine relative to execution core
-bpred                perfect # branch predictor type {nottaken|taken|perfect|bimod|2lev|comb}
-bpred:bimod     2048 # bimodal predictor config (<table size>)
-bpred:2lev      1 16384 4 0 # 2-level predictor config (<l1size> <l2size> <hist_size> <xor>)
-bpred:comb      1024 # combining predictor config (<meta_table_size>)
-bpred:ras                  8 # return address stack size (0 for no return stack)
-bpred:btb       512 4 # BTB config (<num_sets> <associativity>)
# -bpred:spec_update       <null> # speculative predictors update in {ID|WB} (default non-spec)
-decode:width               4 # instruction decode B/W (insts/cycle)
-issue:width                4 # instruction issue B/W (insts/cycle)
-issue:inorder          false # run pipeline with in-order issue
-issue:wrongpath         true # issue instructions down wrong execution paths
-commit:width               4 # instruction commit B/W (insts/cycle)
-ruu:size                  16 # register update unit (RUU) size
-lsq:size                   8 # load/store queue (LSQ) size
-cache:dl1       dl1:32:64:8:f # l1 data cache config, i.e., {<config>|none}
-cache:dl1lat               1 # l1 data cache hit latency (in cycles)
-cache:dl2       dl2:256:64:8:f # l2 data cache config, i.e., {<config>|none}
-cache:dl2lat               2 # l2 data cache hit latency (in cycles)
-cache:il1       il1:32:64:8:f # l1 inst cache config, i.e., {<config>|dl1|dl2|none}
-cache:il1lat               1 # l1 instruction cache hit latency (in cycles)
-cache:il2                dl2 # l2 instruction cache config, i.e., {<config>|dl2|none}
-cache:il2lat               2 # l2 instruction cache hit latency (in cycles)
-cache:flush            false # flush caches on system calls
-cache:icompress        false # convert 64-bit inst addresses to 32-bit inst equivalents
-mem:lat         103 1 # memory access latency (<first_chunk> <inter_chunk>)
-mem:width                  8 # memory access bus width (in bytes)
-tlb:itlb        itlb:16:4096:4:l # instruction TLB config, i.e., {<config>|none}
-tlb:dtlb        dtlb:32:4096:4:l # data TLB config, i.e., {<config>|none}
-tlb:lat                   30 # inst/data TLB miss latency (in cycles)
-res:ialu                   1 # total number of integer ALU's available
-res:imult                  1 # total number of integer multiplier/dividers available
-res:memport                1 # total number of memory system ports available (to CPU)
-res:fpalu                  1 # total number of floating point ALU's available
-res:fpmult                 1 # total number of floating point multiplier/dividers available
# -pcstat              <null> # profile stat(s) against text addr's (mult uses ok)
-bugcompat              false # operate in backward-compatible bugs mode (for testing only)

  Pipetrace range arguments are formatted as follows:

    {{@|#}<start>}:{{@|#|+}<end>}

  Both ends of the range are optional, if neither are specified, the entire
  execution is traced.  Ranges that start with a `@' designate an address
  range to be traced, those that start with an `#' designate a cycle count
  range.  All other range values represent an instruction count range.  The
  second argument, if specified with a `+', indicates a value relative
  to the first argument, e.g., 1000:+100 == 1000:1100.  Program symbols may
  be used in all contexts.

    Examples:   -ptrace FOO.trc #0:#1000
                -ptrace BAR.trc @2000:
                -ptrace BLAH.trc :1500
                -ptrace UXXE.trc :
                -ptrace FOOBAR.trc @main:+278

  Branch predictor configuration examples for 2-level predictor:
    Configurations:   N, M, W, X
      N   # entries in first level (# of shift register(s))
      W   width of shift register(s)
      M   # entries in 2nd level (# of counters, or other FSM)
      X   (yes-1/no-0) xor history and address for 2nd level index
    Sample predictors:
      GAg     : 1, W, 2^W, 0
      GAp     : 1, W, M (M > 2^W), 0
      PAg     : N, W, 2^W, 0
      PAp     : N, W, M (M == 2^(N+W)), 0
      gshare  : 1, W, 2^W, 1
  Predictor `comb' combines a bimodal and a 2-level predictor.

  The cache config parameter <config> has the following format:

    <name>:<nsets>:<bsize>:<assoc>:<repl>

    <name>   - name of the cache being defined
    <nsets>  - number of sets in the cache
    <bsize>  - block size of the cache
    <assoc>  - associativity of the cache
    <repl>   - block replacement strategy, 'l'-LRU, 'f'-FIFO, 'r'-random

    Examples:   -cache:dl1 dl1:4096:32:1:l
                -dtlb dtlb:128:4096:32:r

  Cache levels can be unified by pointing a level of the instruction cache
  hierarchy at the data cache hiearchy using the "dl1" and "dl2" cache
  configuration arguments.  Most sensible combinations are supported, e.g.,

    A unified l2 cache (il2 is pointed at dl2):
      -cache:il1 il1:128:64:1:l -cache:il2 dl2
      -cache:dl1 dl1:256:32:1:l -cache:dl2 ul2:1024:64:2:l

    Or, a fully unified cache hierarchy (il1 pointed at dl1):
      -cache:il1 dl1
      -cache:dl1 ul1:256:32:1:l -cache:dl2 ul2:1024:64:2:l



sim: ** starting performance simulation **

sim: ** simulation statistics **
sim_num_insn              100000002 # total number of instructions committed
sim_num_refs               39733915 # total number of loads and stores committed
sim_num_loads              26491578 # total number of loads committed
sim_num_stores         13242337.0000 # total number of stores committed
sim_num_branches           17614916 # total number of branches committed
sim_elapsed_time                152 # total simulation time in seconds
sim_inst_rate           657894.7500 # simulation speed (in insts/sec)
sim_total_insn            100000002 # total number of instructions executed
sim_total_refs             39733915 # total number of loads and stores executed
sim_total_loads            26491578 # total number of loads executed
sim_total_stores       13242337.0000 # total number of stores executed
sim_total_branches         17614916 # total number of branches executed
sim_cycle                 138758682 # total simulation time in cycles
sim_IPC                      0.7207 # instructions per cycle
sim_CPI                      1.3876 # cycles per instruction
sim_exec_BW                  0.7207 # total instructions (mis-spec + committed) per cycle
sim_IPB                      5.6770 # instruction per branch
IFQ_count                 484113451 # cumulative IFQ occupancy
IFQ_fcount                120710868 # cumulative IFQ full count
ifq_occupancy                3.4889 # avg IFQ occupancy (insn's)
ifq_rate                     0.7207 # avg IFQ dispatch rate (insn/cycle)
ifq_latency                  4.8411 # avg IFQ occupant latency (cycle's)
ifq_full                     0.8699 # fraction of time (cycle's) IFQ was full
RUU_count                1868443884 # cumulative RUU occupancy
RUU_fcount                 85131943 # cumulative RUU full count
ruu_occupancy               13.4654 # avg RUU occupancy (insn's)
ruu_rate                     0.7207 # avg RUU dispatch rate (insn/cycle)
ruu_latency                 18.6844 # avg RUU occupant latency (cycle's)
ruu_full                     0.6135 # fraction of time (cycle's) RUU was full
LSQ_count                 738037631 # cumulative LSQ occupancy
LSQ_fcount                 35664718 # cumulative LSQ full count
lsq_occupancy                5.3189 # avg LSQ occupancy (insn's)
lsq_rate                     0.7207 # avg LSQ dispatch rate (insn/cycle)
lsq_latency                  7.3804 # avg LSQ occupant latency (cycle's)
lsq_full                     0.2570 # fraction of time (cycle's) LSQ was full
sim_slip                 2746215272 # total number of slip cycles
avg_sim_slip                27.4622 # the average slip between issue and retirement
il1.accesses              122648695 # total number of accesses
il1.hits                  122106943 # total number of hits
il1.misses                   541752 # total number of misses
il1.replacements             541496 # total number of replacements
il1.writebacks                    0 # total number of writebacks
il1.invalidations                 0 # total number of invalidations
il1.miss_rate                0.0044 # miss rate (i.e., misses/ref)
il1.repl_rate                0.0044 # replacement rate (i.e., repls/ref)
il1.wb_rate                  0.0000 # writeback rate (i.e., wrbks/ref)
il1.inv_rate                 0.0000 # invalidation rate (i.e., invs/ref)
dl1.accesses               39695200 # total number of accesses
dl1.hits                   39211108 # total number of hits
dl1.misses                   484092 # total number of misses
dl1.replacements             483836 # total number of replacements
dl1.writebacks                78553 # total number of writebacks
dl1.invalidations                 0 # total number of invalidations
dl1.miss_rate                0.0122 # miss rate (i.e., misses/ref)
dl1.repl_rate                0.0122 # replacement rate (i.e., repls/ref)
dl1.wb_rate                  0.0020 # writeback rate (i.e., wrbks/ref)
dl1.inv_rate                 0.0000 # invalidation rate (i.e., invs/ref)
dl2.accesses                1104397 # total number of accesses
dl2.hits                     680138 # total number of hits
dl2.misses                   424259 # total number of misses
dl2.replacements             422211 # total number of replacements
dl2.writebacks                37617 # total number of writebacks
dl2.invalidations                 0 # total number of invalidations
dl2.miss_rate                0.3842 # miss rate (i.e., misses/ref)
dl2.repl_rate                0.3823 # replacement rate (i.e., repls/ref)
dl2.wb_rate                  0.0341 # writeback rate (i.e., wrbks/ref)
dl2.inv_rate                 0.0000 # invalidation rate (i.e., invs/ref)
itlb.accesses             122648695 # total number of accesses
itlb.hits                 122642809 # total number of hits
itlb.misses                    5886 # total number of misses
itlb.replacements              5823 # total number of replacements
itlb.writebacks                   0 # total number of writebacks
itlb.invalidations                0 # total number of invalidations
itlb.miss_rate               0.0000 # miss rate (i.e., misses/ref)
itlb.repl_rate               0.0000 # replacement rate (i.e., repls/ref)
itlb.wb_rate                 0.0000 # writeback rate (i.e., wrbks/ref)
itlb.inv_rate                0.0000 # invalidation rate (i.e., invs/ref)
dtlb.accesses              39733909 # total number of accesses
dtlb.hits                  39627422 # total number of hits
dtlb.misses                  106487 # total number of misses
dtlb.replacements            106359 # total number of replacements
dtlb.writebacks                   0 # total number of writebacks
dtlb.invalidations                0 # total number of invalidations
dtlb.miss_rate               0.0027 # miss rate (i.e., misses/ref)
dtlb.repl_rate               0.0027 # replacement rate (i.e., repls/ref)
dtlb.wb_rate                 0.0000 # writeback rate (i.e., wrbks/ref)
dtlb.inv_rate                0.0000 # invalidation rate (i.e., invs/ref)
rename_power           57996340.0494 # total power usage of rename unit
bpred_power            462966750.6419 # total power usage of bpred unit
window_power           305868457.0874 # total power usage of instruction window
lsq_power              59694011.2696 # total power usage of load/store queue
regfile_power          495711519.8997 # total power usage of arch. regfile
icache_power           420794451.6997 # total power usage of icache
dcache_power           446712470.6607 # total power usage of dcache
dcache2_power          430564968.3671 # total power usage of dcache2
alu_power              657063135.1961 # total power usage of alu
falu_power             495404744.0240 # total power usage of falu
resultbus_power        122817943.0062 # total power usage of resultbus
clock_power            2644360741.6383 # total power usage of clock
avg_rename_power             0.4180 # avg power usage of rename unit
avg_bpred_power              3.3365 # avg power usage of bpred unit
avg_window_power             2.2043 # avg power usage of instruction window
avg_lsq_power                0.4302 # avg power usage of lsq
avg_regfile_power            3.5725 # avg power usage of arch. regfile
avg_icache_power             3.0326 # avg power usage of icache
avg_dcache_power             3.2193 # avg power usage of dcache
avg_dcache2_power            3.1030 # avg power usage of dcache2
avg_alu_power                4.7353 # avg power usage of alu
avg_falu_power               3.5703 # avg power usage of falu
avg_resultbus_power          0.8851 # avg power usage of resultbus
avg_clock_power             19.0573 # avg power usage of clock
fetch_stage_power      883761202.3416 # total power usage of fetch stage
dispatch_stage_power   57996340.0494 # total power usage of dispatch stage
issue_stage_power      2022720985.5870 # total power usage of issue stage
avg_fetch_power              6.3691 # average power of fetch unit per cycle
avg_dispatch_power           0.4180 # average power of dispatch unit per cycle
avg_issue_power             14.5773 # average power of issue unit per cycle
total_power            6104550789.5159 # total power per cycle
avg_total_power_cycle       43.9940 # average total power per cycle
avg_total_power_cycle_nofp_nod2      37.3208 # average total power per cycle
avg_total_power_insn        61.0455 # average total power per insn
avg_total_power_insn_nofp_nod2      51.7858 # average total power per insn
rename_power_cc1       26982780.9912 # total power usage of rename unit_cc1
bpred_power_cc1              0.0000 # total power usage of bpred unit_cc1
window_power_cc1       198778432.9951 # total power usage of instruction window_cc1
lsq_power_cc1          9050048.4171 # total power usage of lsq_cc1
regfile_power_cc1      225177938.8884 # total power usage of arch. regfile_cc1
icache_power_cc1       196422675.5612 # total power usage of icache_cc1
dcache_power_cc1       127792658.4884 # total power usage of dcache_cc1
dcache2_power_cc1      3426918.2382 # total power usage of dcache2_cc1
alu_power_cc1          116649356.8287 # total power usage of alu_cc1
resultbus_power_cc1    70977343.0409 # total power usage of resultbus_cc1
clock_power_cc1        842659765.2990 # total power usage of clock_cc1
avg_rename_power_cc1         0.1945 # avg power usage of rename unit_cc1
avg_bpred_power_cc1          0.0000 # avg power usage of bpred unit_cc1
avg_window_power_cc1         1.4325 # avg power usage of instruction window_cc1
avg_lsq_power_cc1            0.0652 # avg power usage of lsq_cc1
avg_regfile_power_cc1        1.6228 # avg power usage of arch. regfile_cc1
avg_icache_power_cc1         1.4156 # avg power usage of icache_cc1
avg_dcache_power_cc1         0.9210 # avg power usage of dcache_cc1
avg_dcache2_power_cc1        0.0247 # avg power usage of dcache2_cc1
avg_alu_power_cc1            0.8407 # avg power usage of alu_cc1
avg_resultbus_power_cc1       0.5115 # avg power usage of resultbus_cc1
avg_clock_power_cc1          6.0728 # avg power usage of clock_cc1
fetch_stage_power_cc1  196422675.5612 # total power usage of fetch stage_cc1
dispatch_stage_power_cc1 26982780.9912 # total power usage of dispatch stage_cc1
issue_stage_power_cc1  526674758.0084 # total power usage of issue stage_cc1
avg_fetch_power_cc1          1.4156 # average power of fetch unit per cycle_cc1
avg_dispatch_power_cc1       0.1945 # average power of dispatch unit per cycle_cc1
avg_issue_power_cc1          3.7956 # average power of issue unit per cycle_cc1
total_power_cycle_cc1  1817917918.7483 # total power per cycle_cc1
avg_total_power_cycle_cc1      13.1013 # average total power per cycle_cc1
avg_total_power_insn_cc1      18.1792 # average total power per insn_cc1
rename_power_cc2       10449137.3755 # total power usage of rename unit_cc2
bpred_power_cc2              0.0000 # total power usage of bpred unit_cc2
window_power_cc2       82318227.3581 # total power usage of instruction window_cc2
lsq_power_cc2          9050048.4171 # total power usage of lsq_cc2
regfile_power_cc2      32237199.5426 # total power usage of arch. regfile_cc2
icache_power_cc2       196422675.5612 # total power usage of icache_cc2
dcache_power_cc2       127792658.4884 # total power usage of dcache_cc2
dcache2_power_cc2      3426918.2382 # total power usage of dcache2_cc2
alu_power_cc2          116668295.5988 # total power usage of alu_cc2
resultbus_power_cc2    22586434.1673 # total power usage of resultbus_cc2
clock_power_cc2        518188439.2896 # total power usage of clock_cc2
avg_rename_power_cc2         0.0753 # avg power usage of rename unit_cc2
avg_bpred_power_cc2          0.0000 # avg power usage of bpred unit_cc2
avg_window_power_cc2         0.5932 # avg power usage of instruction window_cc2
avg_lsq_power_cc2            0.0652 # avg power usage of instruction lsq_cc2
avg_regfile_power_cc2        0.2323 # avg power usage of arch. regfile_cc2
avg_icache_power_cc2         1.4156 # avg power usage of icache_cc2
avg_dcache_power_cc2         0.9210 # avg power usage of dcache_cc2
avg_dcache2_power_cc2        0.0247 # avg power usage of dcache2_cc2
avg_alu_power_cc2            0.8408 # avg power usage of alu_cc2
avg_resultbus_power_cc2       0.1628 # avg power usage of resultbus_cc2
avg_clock_power_cc2          3.7345 # avg power usage of clock_cc2
fetch_stage_power_cc2  196422675.5612 # total power usage of fetch stage_cc2
dispatch_stage_power_cc2 10449137.3755 # total power usage of dispatch stage_cc2
issue_stage_power_cc2  361842582.2679 # total power usage of issue stage_cc2
avg_fetch_power_cc2          1.4156 # average power of fetch unit per cycle_cc2
avg_dispatch_power_cc2       0.0753 # average power of dispatch unit per cycle_cc2
avg_issue_power_cc2          2.6077 # average power of issue unit per cycle_cc2
total_power_cycle_cc2  1119140034.0369 # total power per cycle_cc2
avg_total_power_cycle_cc2       8.0654 # average total power per cycle_cc2
avg_total_power_insn_cc2      11.1914 # average total power per insn_cc2
rename_power_cc3       13550493.2639 # total power usage of rename unit_cc3
bpred_power_cc3        46296675.0190 # total power usage of bpred unit_cc3
window_power_cc3       90880872.2108 # total power usage of instruction window_cc3
lsq_power_cc3          14093216.4129 # total power usage of lsq_cc3
regfile_power_cc3      56893844.0102 # total power usage of arch. regfile_cc3
icache_power_cc3       218859853.1542 # total power usage of icache_cc3
dcache_power_cc3       160428198.6526 # total power usage of dcache_cc3
dcache2_power_cc3      46167326.0403 # total power usage of dcache2_cc3
alu_power_cc3          170709673.9544 # total power usage of alu_cc3
resultbus_power_cc3    27297320.7095 # total power usage of resultbus_cc3
clock_power_cc3        694634342.0236 # total power usage of clock_cc3
avg_rename_power_cc3         0.0977 # avg power usage of rename unit_cc3
avg_bpred_power_cc3          0.3336 # avg power usage of bpred unit_cc3
avg_window_power_cc3         0.6550 # avg power usage of instruction window_cc3
avg_lsq_power_cc3            0.1016 # avg power usage of instruction lsq_cc3
avg_regfile_power_cc3        0.4100 # avg power usage of arch. regfile_cc3
avg_icache_power_cc3         1.5773 # avg power usage of icache_cc3
avg_dcache_power_cc3         1.1562 # avg power usage of dcache_cc3
avg_dcache2_power_cc3        0.3327 # avg power usage of dcache2_cc3
avg_alu_power_cc3            1.2303 # avg power usage of alu_cc3
avg_resultbus_power_cc3       0.1967 # avg power usage of resultbus_cc3
avg_clock_power_cc3          5.0061 # avg power usage of clock_cc3
fetch_stage_power_cc3  265156528.1732 # total power usage of fetch stage_cc3
dispatch_stage_power_cc3 13550493.2639 # total power usage of dispatch stage_cc3
issue_stage_power_cc3  509576607.9804 # total power usage of issue stage_cc3
avg_fetch_power_cc3          1.9109 # average power of fetch unit per cycle_cc3
avg_dispatch_power_cc3       0.0977 # average power of dispatch unit per cycle_cc3
avg_issue_power_cc3          3.6724 # average power of issue unit per cycle_cc3
total_power_cycle_cc3  1539811815.4514 # total power per cycle_cc3
avg_total_power_cycle_cc3      11.0970 # average total power per cycle_cc3
avg_total_power_insn_cc3      15.3981 # average total power per insn_cc3
total_rename_access       100000002 # total number accesses of rename unit
total_bpred_access                0 # total number accesses of bpred unit
total_window_access       373494282 # total number accesses of instruction window
total_lsq_access           39772618 # total number accesses of load/store queue
total_regfile_access      120771455 # total number accesses of arch. regfile
total_icache_access       122648695 # total number accesses of icache
total_dcache_access        39695200 # total number accesses of dcache
total_dcache2_access        1104397 # total number accesses of dcache2
total_alu_access           99935304 # total number accesses of alu
total_resultbus_access    108876646 # total number accesses of resultbus
avg_rename_access            0.7207 # avg number accesses of rename unit
avg_bpred_access             0.0000 # avg number accesses of bpred unit
avg_window_access            2.6917 # avg number accesses of instruction window
avg_lsq_access               0.2866 # avg number accesses of lsq
avg_regfile_access           0.8704 # avg number accesses of arch. regfile
avg_icache_access            0.8839 # avg number accesses of icache
avg_dcache_access            0.2861 # avg number accesses of dcache
avg_dcache2_access           0.0080 # avg number accesses of dcache2
avg_alu_access               0.7202 # avg number accesses of alu
avg_resultbus_access         0.7846 # avg number accesses of resultbus
max_rename_access                 4 # max number accesses of rename unit
max_bpred_access                  0 # max number accesses of bpred unit
max_window_access                13 # max number accesses of instruction window
max_lsq_access                    4 # max number accesses of load/store queue
max_regfile_access               12 # max number accesses of arch. regfile
max_icache_access                 4 # max number accesses of icache
max_dcache_access                 2 # max number accesses of dcache
max_dcache2_access                5 # max number accesses of dcache2
max_alu_access                    3 # max number accesses of alu
max_resultbus_access              7 # max number accesses of resultbus
max_cycle_power_cc1         27.4226 # maximum cycle power usage of cc1
max_cycle_power_cc2         23.0651 # maximum cycle power usage of cc2
max_cycle_power_cc3         24.6830 # maximum cycle power usage of cc3
sim_invalid_addrs                 0 # total non-speculative bogus addresses seen (debug var)
ld_text_base           0x0120000000 # program text (code) segment base
ld_text_size                 819200 # program text (code) size in bytes
ld_data_base           0x0140000000 # program initialized data segment base
ld_data_size                 118976 # program init'ed `.data' and uninit'ed `.bss' size in bytes
ld_stack_base          0x011ff9b000 # program stack segment base (highest address in stack)
ld_stack_size                 16384 # program initial stack size
ld_prog_entry          0x01200336a8 # program entry point (initial PC)
ld_environ_base        0x011ff96490 # program environment base address address
ld_target_big_endian              0 # target executable endian-ness, non-zero if big endian
mem.page_count                 7515 # total number of pages allocated
mem.page_mem                 60120k # total size of memory pages allocated
mem.ptab_misses               12531 # total first level page table misses
mem.ptab_accesses         845557000 # total page table accesses
mem.ptab_miss_rate           0.0000 # first level page table miss rate

