sim-outorder: SimpleScalar/Alpha Tool Set version 3.0 of August, 2003.
Copyright (c) 1994-2003 by Todd M. Austin, Ph.D. and SimpleScalar, LLC.
All Rights Reserved. This version of SimpleScalar is licensed for academic
non-commercial use.  No portion of this work may be used by any commercial
entity, or for any commercial purpose, without the prior written permission
of SimpleScalar, LLC (info@simplescalar.com).


Processor Parameters:
Issue Width: 16
Window Size: 64
Number of Virtual Registers: 32
Number of Physical Registers: 64
Datapath Width: 64
Total Power Consumption: 259.498
Branch Predictor Power Consumption: 3.11615  (1.21%)
 branch target buffer power (W): 2.49493
 local predict power (W): 0.354432
 global predict power (W): 0.0996078
 chooser power (W): 0.0702439
 RAS power (W): 0.0969383
Rename Logic Power Consumption: 3.27072  (1.27%)
 Instruction Decode Power (W): 0.0639661
 RAT decode_power (W): 0.454058
 RAT wordline_power (W): 0.227603
 RAT bitline_power (W): 2.30694
 DCL Comparators (W): 0.218151
Instruction Window Power Consumption: 43.216  (16.8%)
 tagdrive (W): 2.9395
 tagmatch (W): 0.989695
 Selection Logic (W): 0.225484
 decode_power (W): 0.976583
 wordline_power (W): 1.0557
 bitline_power (W): 37.0291
Load/Store Queue Power Consumption: 23.479  (9.12%)
 tagdrive (W): 11.1732
 tagmatch (W): 3.86294
 decode_power (W): 0.325528
 wordline_power (W): 0.139808
 bitline_power (W): 7.97753
Arch. Register File Power Consumption: 25.1387  (9.76%)
 decode_power (W): 0.454058
 wordline_power (W): 1.0557
 bitline_power (W): 23.629
Result Bus Power Consumption: 31.3281  (12.2%)
Total Clock Power: 62.8357  (24.4%)
Int ALU Power: 4.66013  (1.81%)
FP ALU Power: 28.5621  (11.1%)
Instruction Cache Power Consumption: 2.76773  (1.07%)
 decode_power (W): 0.151353
 wordline_power (W): 0.180479
 bitline_power (W): 1.42251
 senseamp_power (W): 0.768
 tagarray_power (W): 0.245382
Itlb_power (W): 0.264936 (0.103%)
Data Cache Power Consumption: 22.1418  (8.6%)
 decode_power (W): 1.21082
 wordline_power (W): 1.44383
 bitline_power (W): 11.3801
 senseamp_power (W): 6.144
 tagarray_power (W): 1.96306
Dtlb_power (W): 3.61376 (1.4%)
Level 2 Cache Power Consumption: 3.10298 (1.21%)
 decode_power (W): 0.19487
 wordline_power (W): 0.0430878
 bitline_power (W): 1.77274
 senseamp_power (W): 0.192
 tagarray_power (W): 0.900275
sim: loading EIO file: ../benchmarks/172.mgrid.spec_ref.eio.gz
sim: command line: ./sim-outorder -config ../configs/current.config ../benchmarks/172.mgrid.spec_ref.eio.gz 

sim: simulation started @ Tue Nov 24 13:37:53 2015, options follow:

sim-outorder: This simulator implements a very detailed out-of-order issue
superscalar processor with a two-level memory system and speculative
execution support.  This simulator is a performance simulator, tracking the
latency of all pipeline operations.

# -config                     # load configuration from a file
# -dumpconfig                 # dump configuration to a file
# -h                    false # print help message    
# -v                    false # verbose operation     
# -d                    false # enable debug message  
# -i                    false # start in Dlite debugger
-seed                       1 # random number generator seed (0 for timer seed)
# -q                    false # initialize and terminate immediately
# -chkpt               <null> # restore EIO trace execution from <fname>
# -redir:sim     ../results/29_23_memport/172.mgrid.spec_ref.eio.gz.out # redirect simulator output to file (non-interactive only)
# -redir:prog       /dev/null # redirect simulated program output to file
-nice                       0 # simulator scheduling priority
-freq            600000000.0000 # frequency             
-max:inst           100000000 # maximum number of inst's to execute
-fastfwd                    0 # number of insts skipped before timing starts
# -ptrace              <null> # generate pipetrace, i.e., <fname|stdout|stderr> <range>
-fetch:ifqsize             16 # instruction fetch queue size (in insts)
-fetch:mplat               15 # extra branch mis-prediction latency
-fetch:speed                1 # speed of front-end of machine relative to execution core
-bpred                perfect # branch predictor type {nottaken|taken|perfect|bimod|2lev|comb}
-bpred:bimod     2048 # bimodal predictor config (<table size>)
-bpred:2lev      1 8192 8 0 # 2-level predictor config (<l1size> <l2size> <hist_size> <xor>)
-bpred:comb      1024 # combining predictor config (<meta_table_size>)
-bpred:ras                  8 # return address stack size (0 for no return stack)
-bpred:btb       512 4 # BTB config (<num_sets> <associativity>)
# -bpred:spec_update       <null> # speculative predictors update in {ID|WB} (default non-spec)
-decode:width              16 # instruction decode B/W (insts/cycle)
-issue:width               16 # instruction issue B/W (insts/cycle)
-issue:inorder          false # run pipeline with in-order issue
-issue:wrongpath         true # issue instructions down wrong execution paths
-commit:width              16 # instruction commit B/W (insts/cycle)
-ruu:size                  64 # register update unit (RUU) size
-lsq:size                  64 # load/store queue (LSQ) size
-cache:dl1       dl1:32:64:8:f # l1 data cache config, i.e., {<config>|none}
-cache:dl1lat               1 # l1 data cache hit latency (in cycles)
-cache:dl2       dl2:256:64:8:f # l2 data cache config, i.e., {<config>|none}
-cache:dl2lat               2 # l2 data cache hit latency (in cycles)
-cache:il1       il1:32:64:8:f # l1 inst cache config, i.e., {<config>|dl1|dl2|none}
-cache:il1lat               1 # l1 instruction cache hit latency (in cycles)
-cache:il2                dl2 # l2 instruction cache config, i.e., {<config>|dl2|none}
-cache:il2lat               2 # l2 instruction cache hit latency (in cycles)
-cache:flush            false # flush caches on system calls
-cache:icompress        false # convert 64-bit inst addresses to 32-bit inst equivalents
-mem:lat         103 1 # memory access latency (<first_chunk> <inter_chunk>)
-mem:width                  8 # memory access bus width (in bytes)
-tlb:itlb        itlb:16:4096:4:l # instruction TLB config, i.e., {<config>|none}
-tlb:dtlb        dtlb:32:4096:4:l # data TLB config, i.e., {<config>|none}
-tlb:lat                   30 # inst/data TLB miss latency (in cycles)
-res:ialu                   4 # total number of integer ALU's available
-res:imult                  2 # total number of integer multiplier/dividers available
-res:memport                8 # total number of memory system ports available (to CPU)
-res:fpalu                  8 # total number of floating point ALU's available
-res:fpmult                 2 # total number of floating point multiplier/dividers available
# -pcstat              <null> # profile stat(s) against text addr's (mult uses ok)
-bugcompat              false # operate in backward-compatible bugs mode (for testing only)

  Pipetrace range arguments are formatted as follows:

    {{@|#}<start>}:{{@|#|+}<end>}

  Both ends of the range are optional, if neither are specified, the entire
  execution is traced.  Ranges that start with a `@' designate an address
  range to be traced, those that start with an `#' designate a cycle count
  range.  All other range values represent an instruction count range.  The
  second argument, if specified with a `+', indicates a value relative
  to the first argument, e.g., 1000:+100 == 1000:1100.  Program symbols may
  be used in all contexts.

    Examples:   -ptrace FOO.trc #0:#1000
                -ptrace BAR.trc @2000:
                -ptrace BLAH.trc :1500
                -ptrace UXXE.trc :
                -ptrace FOOBAR.trc @main:+278

  Branch predictor configuration examples for 2-level predictor:
    Configurations:   N, M, W, X
      N   # entries in first level (# of shift register(s))
      W   width of shift register(s)
      M   # entries in 2nd level (# of counters, or other FSM)
      X   (yes-1/no-0) xor history and address for 2nd level index
    Sample predictors:
      GAg     : 1, W, 2^W, 0
      GAp     : 1, W, M (M > 2^W), 0
      PAg     : N, W, 2^W, 0
      PAp     : N, W, M (M == 2^(N+W)), 0
      gshare  : 1, W, 2^W, 1
  Predictor `comb' combines a bimodal and a 2-level predictor.

  The cache config parameter <config> has the following format:

    <name>:<nsets>:<bsize>:<assoc>:<repl>

    <name>   - name of the cache being defined
    <nsets>  - number of sets in the cache
    <bsize>  - block size of the cache
    <assoc>  - associativity of the cache
    <repl>   - block replacement strategy, 'l'-LRU, 'f'-FIFO, 'r'-random

    Examples:   -cache:dl1 dl1:4096:32:1:l
                -dtlb dtlb:128:4096:32:r

  Cache levels can be unified by pointing a level of the instruction cache
  hierarchy at the data cache hiearchy using the "dl1" and "dl2" cache
  configuration arguments.  Most sensible combinations are supported, e.g.,

    A unified l2 cache (il2 is pointed at dl2):
      -cache:il1 il1:128:64:1:l -cache:il2 dl2
      -cache:dl1 dl1:256:32:1:l -cache:dl2 ul2:1024:64:2:l

    Or, a fully unified cache hierarchy (il1 pointed at dl1):
      -cache:il1 dl1
      -cache:dl1 ul1:256:32:1:l -cache:dl2 ul2:1024:64:2:l



sim: ** starting performance simulation **

sim: ** simulation statistics **
sim_num_insn              100000008 # total number of instructions committed
sim_num_refs               36272670 # total number of loads and stores committed
sim_num_loads              31712710 # total number of loads committed
sim_num_stores         4559960.0000 # total number of stores committed
sim_num_branches             292900 # total number of branches committed
sim_elapsed_time                135 # total simulation time in seconds
sim_inst_rate           740740.8000 # simulation speed (in insts/sec)
sim_total_insn            100000008 # total number of instructions executed
sim_total_refs             36272670 # total number of loads and stores executed
sim_total_loads            31712710 # total number of loads executed
sim_total_stores       4559960.0000 # total number of stores executed
sim_total_branches           292900 # total number of branches executed
sim_cycle                  49257156 # total simulation time in cycles
sim_IPC                      2.0302 # instructions per cycle
sim_CPI                      0.4926 # cycles per instruction
sim_exec_BW                  2.0302 # total instructions (mis-spec + committed) per cycle
sim_IPB                    341.4135 # instruction per branch
IFQ_count                 787193477 # cumulative IFQ occupancy
IFQ_fcount                 49199216 # cumulative IFQ full count
ifq_occupancy               15.9813 # avg IFQ occupancy (insn's)
ifq_rate                     2.0302 # avg IFQ dispatch rate (insn/cycle)
ifq_latency                  7.8719 # avg IFQ occupant latency (cycle's)
ifq_full                     0.9988 # fraction of time (cycle's) IFQ was full
RUU_count                3148236240 # cumulative RUU occupancy
RUU_fcount                 48969030 # cumulative RUU full count
ruu_occupancy               63.9143 # avg RUU occupancy (insn's)
ruu_rate                     2.0302 # avg RUU dispatch rate (insn/cycle)
ruu_latency                 31.4824 # avg RUU occupant latency (cycle's)
ruu_full                     0.9942 # fraction of time (cycle's) RUU was full
LSQ_count                1383987368 # cumulative LSQ occupancy
LSQ_fcount                        0 # cumulative LSQ full count
lsq_occupancy               28.0972 # avg LSQ occupancy (insn's)
lsq_rate                     2.0302 # avg LSQ dispatch rate (insn/cycle)
lsq_latency                 13.8399 # avg LSQ occupant latency (cycle's)
lsq_full                     0.0000 # fraction of time (cycle's) LSQ was full
sim_slip                 4668495446 # total number of slip cycles
avg_sim_slip                46.6850 # the average slip between issue and retirement
il1.accesses              102770186 # total number of accesses
il1.hits                  102769297 # total number of hits
il1.misses                      889 # total number of misses
il1.replacements                633 # total number of replacements
il1.writebacks                    0 # total number of writebacks
il1.invalidations                 0 # total number of invalidations
il1.miss_rate                0.0000 # miss rate (i.e., misses/ref)
il1.repl_rate                0.0000 # replacement rate (i.e., repls/ref)
il1.wb_rate                  0.0000 # writeback rate (i.e., wrbks/ref)
il1.inv_rate                 0.0000 # invalidation rate (i.e., invs/ref)
dl1.accesses               36185553 # total number of accesses
dl1.hits                   34646911 # total number of hits
dl1.misses                  1538642 # total number of misses
dl1.replacements            1538386 # total number of replacements
dl1.writebacks               288903 # total number of writebacks
dl1.invalidations                 0 # total number of invalidations
dl1.miss_rate                0.0425 # miss rate (i.e., misses/ref)
dl1.repl_rate                0.0425 # replacement rate (i.e., repls/ref)
dl1.wb_rate                  0.0080 # writeback rate (i.e., wrbks/ref)
dl1.inv_rate                 0.0000 # invalidation rate (i.e., invs/ref)
dl2.accesses                1828434 # total number of accesses
dl2.hits                     762889 # total number of hits
dl2.misses                  1065545 # total number of misses
dl2.replacements            1063497 # total number of replacements
dl2.writebacks               271064 # total number of writebacks
dl2.invalidations                 0 # total number of invalidations
dl2.miss_rate                0.5828 # miss rate (i.e., misses/ref)
dl2.repl_rate                0.5816 # replacement rate (i.e., repls/ref)
dl2.wb_rate                  0.1482 # writeback rate (i.e., wrbks/ref)
dl2.inv_rate                 0.0000 # invalidation rate (i.e., invs/ref)
itlb.accesses             102770186 # total number of accesses
itlb.hits                 102770158 # total number of hits
itlb.misses                      28 # total number of misses
itlb.replacements                 0 # total number of replacements
itlb.writebacks                   0 # total number of writebacks
itlb.invalidations                0 # total number of invalidations
itlb.miss_rate               0.0000 # miss rate (i.e., misses/ref)
itlb.repl_rate               0.0000 # replacement rate (i.e., repls/ref)
itlb.wb_rate                 0.0000 # writeback rate (i.e., wrbks/ref)
itlb.inv_rate                0.0000 # invalidation rate (i.e., invs/ref)
dtlb.accesses              36272667 # total number of accesses
dtlb.hits                  36251959 # total number of hits
dtlb.misses                   20708 # total number of misses
dtlb.replacements             20580 # total number of replacements
dtlb.writebacks                   0 # total number of writebacks
dtlb.invalidations                0 # total number of invalidations
dtlb.miss_rate               0.0006 # miss rate (i.e., misses/ref)
dtlb.repl_rate               0.0006 # replacement rate (i.e., repls/ref)
dtlb.wb_rate                 0.0000 # writeback rate (i.e., wrbks/ref)
dtlb.inv_rate                0.0000 # invalidation rate (i.e., invs/ref)
rename_power           161106292.2654 # total power usage of rename unit
bpred_power            153492703.0219 # total power usage of bpred unit
window_power           2128698713.2828 # total power usage of instruction window
lsq_power              1156507372.7999 # total power usage of load/store queue
regfile_power          1238262970.0897 # total power usage of arch. regfile
icache_power           149380413.2184 # total power usage of icache
dcache_power           1268647225.1026 # total power usage of dcache
dcache2_power          152843810.8232 # total power usage of dcache2
alu_power              1636432090.9865 # total power usage of alu
falu_power             1406887318.5986 # total power usage of falu
resultbus_power        1543133904.7848 # total power usage of resultbus
clock_power            3095109311.3620 # total power usage of clock
avg_rename_power             3.2707 # avg power usage of rename unit
avg_bpred_power              3.1162 # avg power usage of bpred unit
avg_window_power            43.2160 # avg power usage of instruction window
avg_lsq_power               23.4790 # avg power usage of lsq
avg_regfile_power           25.1387 # avg power usage of arch. regfile
avg_icache_power             3.0327 # avg power usage of icache
avg_dcache_power            25.7556 # avg power usage of dcache
avg_dcache2_power            3.1030 # avg power usage of dcache2
avg_alu_power               33.2222 # avg power usage of alu
avg_falu_power              28.5621 # avg power usage of falu
avg_resultbus_power         31.3281 # avg power usage of resultbus
avg_clock_power             62.8357 # avg power usage of clock
fetch_stage_power      302873116.2403 # total power usage of fetch stage
dispatch_stage_power   161106292.2654 # total power usage of dispatch stage
issue_stage_power      7886263117.7798 # total power usage of issue stage
avg_fetch_power              6.1488 # average power of fetch unit per cycle
avg_dispatch_power           3.2707 # average power of dispatch unit per cycle
avg_issue_power            160.1039 # average power of issue unit per cycle
total_power            12683614807.7372 # total power per cycle
avg_total_power_cycle      257.4979 # average total power per cycle
avg_total_power_cycle_nofp_nod2     225.8328 # average total power per cycle
avg_total_power_insn       126.8361 # average total power per insn
avg_total_power_insn_nofp_nod2     111.2388 # average total power per insn
rename_power_cc1       36263506.1492 # total power usage of rename unit_cc1
bpred_power_cc1              0.0000 # total power usage of bpred unit_cc1
window_power_cc1       845485381.2073 # total power usage of instruction window_cc1
lsq_power_cc1          200723917.5577 # total power usage of lsq_cc1
regfile_power_cc1      241410809.7604 # total power usage of arch. regfile_cc1
icache_power_cc1       33625176.7378 # total power usage of icache_cc1
dcache_power_cc1       313389613.0402 # total power usage of dcache_cc1
dcache2_power_cc1      4149154.6997 # total power usage of dcache2_cc1
alu_power_cc1          587724516.8028 # total power usage of alu_cc1
resultbus_power_cc1    627994788.1104 # total power usage of resultbus_cc1
clock_power_cc1        1017171589.3531 # total power usage of clock_cc1
avg_rename_power_cc1         0.7362 # avg power usage of rename unit_cc1
avg_bpred_power_cc1          0.0000 # avg power usage of bpred unit_cc1
avg_window_power_cc1        17.1647 # avg power usage of instruction window_cc1
avg_lsq_power_cc1            4.0750 # avg power usage of lsq_cc1
avg_regfile_power_cc1        4.9010 # avg power usage of arch. regfile_cc1
avg_icache_power_cc1         0.6826 # avg power usage of icache_cc1
avg_dcache_power_cc1         6.3623 # avg power usage of dcache_cc1
avg_dcache2_power_cc1        0.0842 # avg power usage of dcache2_cc1
avg_alu_power_cc1           11.9318 # avg power usage of alu_cc1
avg_resultbus_power_cc1      12.7493 # avg power usage of resultbus_cc1
avg_clock_power_cc1         20.6502 # avg power usage of clock_cc1
fetch_stage_power_cc1  33625176.7378 # total power usage of fetch stage_cc1
dispatch_stage_power_cc1 36263506.1492 # total power usage of dispatch stage_cc1
issue_stage_power_cc1  2579467371.4182 # total power usage of issue stage_cc1
avg_fetch_power_cc1          0.6826 # average power of fetch unit per cycle_cc1
avg_dispatch_power_cc1       0.7362 # average power of dispatch unit per cycle_cc1
avg_issue_power_cc1         52.3674 # average power of issue unit per cycle_cc1
total_power_cycle_cc1  3907938453.4186 # total power per cycle_cc1
avg_total_power_cycle_cc1      79.3375 # average total power per cycle_cc1
avg_total_power_insn_cc1      39.0794 # average total power per insn_cc1
rename_power_cc2       20441992.3912 # total power usage of rename unit_cc2
bpred_power_cc2              0.0000 # total power usage of bpred unit_cc2
window_power_cc2       404042135.8227 # total power usage of instruction window_cc2
lsq_power_cc2          63964340.2458 # total power usage of lsq_cc2
regfile_power_cc2      83529429.5431 # total power usage of arch. regfile_cc2
icache_power_cc2       33625176.7378 # total power usage of icache_cc2
dcache_power_cc2       116497543.4484 # total power usage of dcache_cc2
dcache2_power_cc2       709198.5289 # total power usage of dcache2_cc2
alu_power_cc2          259162662.6352 # total power usage of alu_cc2
resultbus_power_cc2    241238348.0832 # total power usage of resultbus_cc2
clock_power_cc2        433338759.9463 # total power usage of clock_cc2
avg_rename_power_cc2         0.4150 # avg power usage of rename unit_cc2
avg_bpred_power_cc2          0.0000 # avg power usage of bpred unit_cc2
avg_window_power_cc2         8.2027 # avg power usage of instruction window_cc2
avg_lsq_power_cc2            1.2986 # avg power usage of instruction lsq_cc2
avg_regfile_power_cc2        1.6958 # avg power usage of arch. regfile_cc2
avg_icache_power_cc2         0.6826 # avg power usage of icache_cc2
avg_dcache_power_cc2         2.3651 # avg power usage of dcache_cc2
avg_dcache2_power_cc2        0.0144 # avg power usage of dcache2_cc2
avg_alu_power_cc2            5.2614 # avg power usage of alu_cc2
avg_resultbus_power_cc2       4.8975 # avg power usage of resultbus_cc2
avg_clock_power_cc2          8.7975 # avg power usage of clock_cc2
fetch_stage_power_cc2  33625176.7378 # total power usage of fetch stage_cc2
dispatch_stage_power_cc2 20441992.3912 # total power usage of dispatch stage_cc2
issue_stage_power_cc2  1085614228.7642 # total power usage of issue stage_cc2
avg_fetch_power_cc2          0.6826 # average power of fetch unit per cycle_cc2
avg_dispatch_power_cc2       0.4150 # average power of dispatch unit per cycle_cc2
avg_issue_power_cc2         22.0397 # average power of issue unit per cycle_cc2
total_power_cycle_cc2  1656549587.3827 # total power per cycle_cc2
avg_total_power_cycle_cc2      33.6306 # average total power per cycle_cc2
avg_total_power_insn_cc2      16.5655 # average total power per insn_cc2
rename_power_cc3       32926271.0470 # total power usage of rename unit_cc3
bpred_power_cc3        15349270.2973 # total power usage of bpred unit_cc3
window_power_cc3       522242190.5309 # total power usage of instruction window_cc3
lsq_power_cc3          159211353.6115 # total power usage of lsq_cc3
regfile_power_cc3      179480181.6077 # total power usage of arch. regfile_cc3
icache_power_cc3       45200700.4358 # total power usage of icache_cc3
dcache_power_cc3       212023391.9827 # total power usage of dcache_cc3
dcache2_power_cc3      15578664.1551 # total power usage of dcache2_cc3
alu_power_cc3          364033420.1389 # total power usage of alu_cc3
resultbus_power_cc3    328565628.2596 # total power usage of resultbus_cc3
clock_power_cc3        634695361.0356 # total power usage of clock_cc3
avg_rename_power_cc3         0.6685 # avg power usage of rename unit_cc3
avg_bpred_power_cc3          0.3116 # avg power usage of bpred unit_cc3
avg_window_power_cc3        10.6024 # avg power usage of instruction window_cc3
avg_lsq_power_cc3            3.2322 # avg power usage of instruction lsq_cc3
avg_regfile_power_cc3        3.6437 # avg power usage of arch. regfile_cc3
avg_icache_power_cc3         0.9176 # avg power usage of icache_cc3
avg_dcache_power_cc3         4.3044 # avg power usage of dcache_cc3
avg_dcache2_power_cc3        0.3163 # avg power usage of dcache2_cc3
avg_alu_power_cc3            7.3905 # avg power usage of alu_cc3
avg_resultbus_power_cc3       6.6704 # avg power usage of resultbus_cc3
avg_clock_power_cc3         12.8853 # avg power usage of clock_cc3
fetch_stage_power_cc3  60549970.7332 # total power usage of fetch stage_cc3
dispatch_stage_power_cc3 32926271.0470 # total power usage of dispatch stage_cc3
issue_stage_power_cc3  1601654648.6786 # total power usage of issue stage_cc3
avg_fetch_power_cc3          1.2293 # average power of fetch unit per cycle_cc3
avg_dispatch_power_cc3       0.6685 # average power of dispatch unit per cycle_cc3
avg_issue_power_cc3         32.5162 # average power of issue unit per cycle_cc3
total_power_cycle_cc3  2509306433.1021 # total power per cycle_cc3
avg_total_power_cycle_cc3      50.9430 # average total power per cycle_cc3
avg_total_power_insn_cc3      25.0931 # average total power per insn_cc3
total_rename_access       100000008 # total number accesses of rename unit
total_bpred_access                0 # total number accesses of bpred unit
total_window_access       387742739 # total number accesses of instruction window
total_lsq_access           36359781 # total number accesses of load/store queue
total_regfile_access      184495261 # total number accesses of arch. regfile
total_icache_access       102770186 # total number accesses of icache
total_dcache_access        36185553 # total number accesses of dcache
total_dcache2_access        1828434 # total number accesses of dcache2
total_alu_access           99951773 # total number accesses of alu
total_resultbus_access    131419791 # total number accesses of resultbus
avg_rename_access            2.0302 # avg number accesses of rename unit
avg_bpred_access             0.0000 # avg number accesses of bpred unit
avg_window_access            7.8718 # avg number accesses of instruction window
avg_lsq_access               0.7382 # avg number accesses of lsq
avg_regfile_access           3.7456 # avg number accesses of arch. regfile
avg_icache_access            2.0864 # avg number accesses of icache
avg_dcache_access            0.7346 # avg number accesses of dcache
avg_dcache2_access           0.0371 # avg number accesses of dcache2
avg_alu_access               2.0292 # avg number accesses of alu
avg_resultbus_access         2.6680 # avg number accesses of resultbus
max_rename_access                16 # max number accesses of rename unit
max_bpred_access                  0 # max number accesses of bpred unit
max_window_access                50 # max number accesses of instruction window
max_lsq_access                   12 # max number accesses of load/store queue
max_regfile_access               38 # max number accesses of arch. regfile
max_icache_access                16 # max number accesses of icache
max_dcache_access                11 # max number accesses of dcache
max_dcache2_access                6 # max number accesses of dcache2
max_alu_access                   14 # max number accesses of alu
max_resultbus_access             17 # max number accesses of resultbus
max_cycle_power_cc1        208.0772 # maximum cycle power usage of cc1
max_cycle_power_cc2        152.4326 # maximum cycle power usage of cc2
max_cycle_power_cc3        156.9369 # maximum cycle power usage of cc3
sim_invalid_addrs                 0 # total non-speculative bogus addresses seen (debug var)
ld_text_base           0x0120000000 # program text (code) segment base
ld_text_size                 802816 # program text (code) size in bytes
ld_data_base           0x0140000000 # program initialized data segment base
ld_data_size               58272512 # program init'ed `.data' and uninit'ed `.bss' size in bytes
ld_stack_base          0x011ff9b000 # program stack segment base (highest address in stack)
ld_stack_size                 16384 # program initial stack size
ld_prog_entry          0x0120015684 # program entry point (initial PC)
ld_environ_base        0x011ff96d00 # program environment base address address
ld_target_big_endian              0 # target executable endian-ness, non-zero if big endian
mem.page_count                 7215 # total number of pages allocated
mem.page_mem                 57720k # total size of memory pages allocated
mem.ptab_misses                8677 # total first level page table misses
mem.ptab_accesses         884976028 # total page table accesses
mem.ptab_miss_rate           0.0000 # first level page table miss rate

