sim-outorder: SimpleScalar/Alpha Tool Set version 3.0 of August, 2003.
Copyright (c) 1994-2003 by Todd M. Austin, Ph.D. and SimpleScalar, LLC.
All Rights Reserved. This version of SimpleScalar is licensed for academic
non-commercial use.  No portion of this work may be used by any commercial
entity, or for any commercial purpose, without the prior written permission
of SimpleScalar, LLC (info@simplescalar.com).


Processor Parameters:
Issue Width: 16
Window Size: 64
Number of Virtual Registers: 32
Number of Physical Registers: 64
Datapath Width: 64
Total Power Consumption: 259.498
Branch Predictor Power Consumption: 3.11615  (1.21%)
 branch target buffer power (W): 2.49493
 local predict power (W): 0.354432
 global predict power (W): 0.0996078
 chooser power (W): 0.0702439
 RAS power (W): 0.0969383
Rename Logic Power Consumption: 3.27072  (1.27%)
 Instruction Decode Power (W): 0.0639661
 RAT decode_power (W): 0.454058
 RAT wordline_power (W): 0.227603
 RAT bitline_power (W): 2.30694
 DCL Comparators (W): 0.218151
Instruction Window Power Consumption: 43.216  (16.8%)
 tagdrive (W): 2.9395
 tagmatch (W): 0.989695
 Selection Logic (W): 0.225484
 decode_power (W): 0.976583
 wordline_power (W): 1.0557
 bitline_power (W): 37.0291
Load/Store Queue Power Consumption: 23.479  (9.12%)
 tagdrive (W): 11.1732
 tagmatch (W): 3.86294
 decode_power (W): 0.325528
 wordline_power (W): 0.139808
 bitline_power (W): 7.97753
Arch. Register File Power Consumption: 25.1387  (9.76%)
 decode_power (W): 0.454058
 wordline_power (W): 1.0557
 bitline_power (W): 23.629
Result Bus Power Consumption: 31.3281  (12.2%)
Total Clock Power: 62.8357  (24.4%)
Int ALU Power: 4.66013  (1.81%)
FP ALU Power: 28.5621  (11.1%)
Instruction Cache Power Consumption: 2.76773  (1.07%)
 decode_power (W): 0.151353
 wordline_power (W): 0.180479
 bitline_power (W): 1.42251
 senseamp_power (W): 0.768
 tagarray_power (W): 0.245382
Itlb_power (W): 0.264936 (0.103%)
Data Cache Power Consumption: 22.1418  (8.6%)
 decode_power (W): 1.21082
 wordline_power (W): 1.44383
 bitline_power (W): 11.3801
 senseamp_power (W): 6.144
 tagarray_power (W): 1.96306
Dtlb_power (W): 3.61376 (1.4%)
Level 2 Cache Power Consumption: 3.10298 (1.21%)
 decode_power (W): 0.19487
 wordline_power (W): 0.0430878
 bitline_power (W): 1.77274
 senseamp_power (W): 0.192
 tagarray_power (W): 0.900275
sim: loading EIO file: ../benchmarks/176.gcc.00-integrate-ref.eio.gz
sim: command line: ./sim-outorder -config ../configs/current.config ../benchmarks/176.gcc.00-integrate-ref.eio.gz 

sim: simulation started @ Tue Nov 24 13:37:50 2015, options follow:

sim-outorder: This simulator implements a very detailed out-of-order issue
superscalar processor with a two-level memory system and speculative
execution support.  This simulator is a performance simulator, tracking the
latency of all pipeline operations.

# -config                     # load configuration from a file
# -dumpconfig                 # dump configuration to a file
# -h                    false # print help message    
# -v                    false # verbose operation     
# -d                    false # enable debug message  
# -i                    false # start in Dlite debugger
-seed                       1 # random number generator seed (0 for timer seed)
# -q                    false # initialize and terminate immediately
# -chkpt               <null> # restore EIO trace execution from <fname>
# -redir:sim     ../results/29_23_memport/176.gcc.00-integrate-ref.eio.gz.out # redirect simulator output to file (non-interactive only)
# -redir:prog       /dev/null # redirect simulated program output to file
-nice                       0 # simulator scheduling priority
-freq            600000000.0000 # frequency             
-max:inst           100000000 # maximum number of inst's to execute
-fastfwd                    0 # number of insts skipped before timing starts
# -ptrace              <null> # generate pipetrace, i.e., <fname|stdout|stderr> <range>
-fetch:ifqsize             16 # instruction fetch queue size (in insts)
-fetch:mplat               15 # extra branch mis-prediction latency
-fetch:speed                1 # speed of front-end of machine relative to execution core
-bpred                perfect # branch predictor type {nottaken|taken|perfect|bimod|2lev|comb}
-bpred:bimod     2048 # bimodal predictor config (<table size>)
-bpred:2lev      1 8192 8 0 # 2-level predictor config (<l1size> <l2size> <hist_size> <xor>)
-bpred:comb      1024 # combining predictor config (<meta_table_size>)
-bpred:ras                  8 # return address stack size (0 for no return stack)
-bpred:btb       512 4 # BTB config (<num_sets> <associativity>)
# -bpred:spec_update       <null> # speculative predictors update in {ID|WB} (default non-spec)
-decode:width              16 # instruction decode B/W (insts/cycle)
-issue:width               16 # instruction issue B/W (insts/cycle)
-issue:inorder          false # run pipeline with in-order issue
-issue:wrongpath         true # issue instructions down wrong execution paths
-commit:width              16 # instruction commit B/W (insts/cycle)
-ruu:size                  64 # register update unit (RUU) size
-lsq:size                  64 # load/store queue (LSQ) size
-cache:dl1       dl1:32:64:8:f # l1 data cache config, i.e., {<config>|none}
-cache:dl1lat               1 # l1 data cache hit latency (in cycles)
-cache:dl2       dl2:256:64:8:f # l2 data cache config, i.e., {<config>|none}
-cache:dl2lat               2 # l2 data cache hit latency (in cycles)
-cache:il1       il1:32:64:8:f # l1 inst cache config, i.e., {<config>|dl1|dl2|none}
-cache:il1lat               1 # l1 instruction cache hit latency (in cycles)
-cache:il2                dl2 # l2 instruction cache config, i.e., {<config>|dl2|none}
-cache:il2lat               2 # l2 instruction cache hit latency (in cycles)
-cache:flush            false # flush caches on system calls
-cache:icompress        false # convert 64-bit inst addresses to 32-bit inst equivalents
-mem:lat         103 1 # memory access latency (<first_chunk> <inter_chunk>)
-mem:width                  8 # memory access bus width (in bytes)
-tlb:itlb        itlb:16:4096:4:l # instruction TLB config, i.e., {<config>|none}
-tlb:dtlb        dtlb:32:4096:4:l # data TLB config, i.e., {<config>|none}
-tlb:lat                   30 # inst/data TLB miss latency (in cycles)
-res:ialu                   4 # total number of integer ALU's available
-res:imult                  2 # total number of integer multiplier/dividers available
-res:memport                8 # total number of memory system ports available (to CPU)
-res:fpalu                  8 # total number of floating point ALU's available
-res:fpmult                 2 # total number of floating point multiplier/dividers available
# -pcstat              <null> # profile stat(s) against text addr's (mult uses ok)
-bugcompat              false # operate in backward-compatible bugs mode (for testing only)

  Pipetrace range arguments are formatted as follows:

    {{@|#}<start>}:{{@|#|+}<end>}

  Both ends of the range are optional, if neither are specified, the entire
  execution is traced.  Ranges that start with a `@' designate an address
  range to be traced, those that start with an `#' designate a cycle count
  range.  All other range values represent an instruction count range.  The
  second argument, if specified with a `+', indicates a value relative
  to the first argument, e.g., 1000:+100 == 1000:1100.  Program symbols may
  be used in all contexts.

    Examples:   -ptrace FOO.trc #0:#1000
                -ptrace BAR.trc @2000:
                -ptrace BLAH.trc :1500
                -ptrace UXXE.trc :
                -ptrace FOOBAR.trc @main:+278

  Branch predictor configuration examples for 2-level predictor:
    Configurations:   N, M, W, X
      N   # entries in first level (# of shift register(s))
      W   width of shift register(s)
      M   # entries in 2nd level (# of counters, or other FSM)
      X   (yes-1/no-0) xor history and address for 2nd level index
    Sample predictors:
      GAg     : 1, W, 2^W, 0
      GAp     : 1, W, M (M > 2^W), 0
      PAg     : N, W, 2^W, 0
      PAp     : N, W, M (M == 2^(N+W)), 0
      gshare  : 1, W, 2^W, 1
  Predictor `comb' combines a bimodal and a 2-level predictor.

  The cache config parameter <config> has the following format:

    <name>:<nsets>:<bsize>:<assoc>:<repl>

    <name>   - name of the cache being defined
    <nsets>  - number of sets in the cache
    <bsize>  - block size of the cache
    <assoc>  - associativity of the cache
    <repl>   - block replacement strategy, 'l'-LRU, 'f'-FIFO, 'r'-random

    Examples:   -cache:dl1 dl1:4096:32:1:l
                -dtlb dtlb:128:4096:32:r

  Cache levels can be unified by pointing a level of the instruction cache
  hierarchy at the data cache hiearchy using the "dl1" and "dl2" cache
  configuration arguments.  Most sensible combinations are supported, e.g.,

    A unified l2 cache (il2 is pointed at dl2):
      -cache:il1 il1:128:64:1:l -cache:il2 dl2
      -cache:dl1 dl1:256:32:1:l -cache:dl2 ul2:1024:64:2:l

    Or, a fully unified cache hierarchy (il1 pointed at dl1):
      -cache:il1 dl1
      -cache:dl1 ul1:256:32:1:l -cache:dl2 ul2:1024:64:2:l



sim: ** starting performance simulation **

sim: ** simulation statistics **
sim_num_insn              100000000 # total number of instructions committed
sim_num_refs               37610714 # total number of loads and stores committed
sim_num_loads              29393633 # total number of loads committed
sim_num_stores         8217081.0000 # total number of stores committed
sim_num_branches           16137508 # total number of branches committed
sim_elapsed_time                123 # total simulation time in seconds
sim_inst_rate           813008.1301 # simulation speed (in insts/sec)
sim_total_insn            100000000 # total number of instructions executed
sim_total_refs             37610714 # total number of loads and stores executed
sim_total_loads            29393633 # total number of loads executed
sim_total_stores       8217081.0000 # total number of stores executed
sim_total_branches         16137508 # total number of branches executed
sim_cycle                  42486155 # total simulation time in cycles
sim_IPC                      2.3537 # instructions per cycle
sim_CPI                      0.4249 # cycles per instruction
sim_exec_BW                  2.3537 # total instructions (mis-spec + committed) per cycle
sim_IPB                      6.1967 # instruction per branch
IFQ_count                 498367506 # cumulative IFQ occupancy
IFQ_fcount                 30594797 # cumulative IFQ full count
ifq_occupancy               11.7301 # avg IFQ occupancy (insn's)
ifq_rate                     2.3537 # avg IFQ dispatch rate (insn/cycle)
ifq_latency                  4.9837 # avg IFQ occupant latency (cycle's)
ifq_full                     0.7201 # fraction of time (cycle's) IFQ was full
RUU_count                2010584688 # cumulative RUU occupancy
RUU_fcount                 22371598 # cumulative RUU full count
ruu_occupancy               47.3233 # avg RUU occupancy (insn's)
ruu_rate                     2.3537 # avg RUU dispatch rate (insn/cycle)
ruu_latency                 20.1058 # avg RUU occupant latency (cycle's)
ruu_full                     0.5266 # fraction of time (cycle's) RUU was full
LSQ_count                 789224750 # cumulative LSQ occupancy
LSQ_fcount                        0 # cumulative LSQ full count
lsq_occupancy               18.5760 # avg LSQ occupancy (insn's)
lsq_rate                     2.3537 # avg LSQ dispatch rate (insn/cycle)
lsq_latency                  7.8922 # avg LSQ occupant latency (cycle's)
lsq_full                     0.0000 # fraction of time (cycle's) LSQ was full
sim_slip                 2937420005 # total number of slip cycles
avg_sim_slip                29.3742 # the average slip between issue and retirement
il1.accesses              212914385 # total number of accesses
il1.hits                  211437274 # total number of hits
il1.misses                  1477111 # total number of misses
il1.replacements            1476855 # total number of replacements
il1.writebacks                    0 # total number of writebacks
il1.invalidations                 0 # total number of invalidations
il1.miss_rate                0.0069 # miss rate (i.e., misses/ref)
il1.repl_rate                0.0069 # replacement rate (i.e., repls/ref)
il1.wb_rate                  0.0000 # writeback rate (i.e., wrbks/ref)
il1.inv_rate                 0.0000 # invalidation rate (i.e., invs/ref)
dl1.accesses               36926412 # total number of accesses
dl1.hits                   36694862 # total number of hits
dl1.misses                   231550 # total number of misses
dl1.replacements             231294 # total number of replacements
dl1.writebacks                90010 # total number of writebacks
dl1.invalidations                 0 # total number of invalidations
dl1.miss_rate                0.0063 # miss rate (i.e., misses/ref)
dl1.repl_rate                0.0063 # replacement rate (i.e., repls/ref)
dl1.wb_rate                  0.0024 # writeback rate (i.e., wrbks/ref)
dl1.inv_rate                 0.0000 # invalidation rate (i.e., invs/ref)
dl2.accesses                1798671 # total number of accesses
dl2.hits                    1581021 # total number of hits
dl2.misses                   217650 # total number of misses
dl2.replacements             215602 # total number of replacements
dl2.writebacks                51135 # total number of writebacks
dl2.invalidations                 0 # total number of invalidations
dl2.miss_rate                0.1210 # miss rate (i.e., misses/ref)
dl2.repl_rate                0.1199 # replacement rate (i.e., repls/ref)
dl2.wb_rate                  0.0284 # writeback rate (i.e., wrbks/ref)
dl2.inv_rate                 0.0000 # invalidation rate (i.e., invs/ref)
itlb.accesses             212914385 # total number of accesses
itlb.hits                 212903508 # total number of hits
itlb.misses                   10877 # total number of misses
itlb.replacements             10813 # total number of replacements
itlb.writebacks                   0 # total number of writebacks
itlb.invalidations                0 # total number of invalidations
itlb.miss_rate               0.0001 # miss rate (i.e., misses/ref)
itlb.repl_rate               0.0001 # replacement rate (i.e., repls/ref)
itlb.wb_rate                 0.0000 # writeback rate (i.e., wrbks/ref)
itlb.inv_rate                0.0000 # invalidation rate (i.e., invs/ref)
dtlb.accesses              37610706 # total number of accesses
dtlb.hits                  37602860 # total number of hits
dtlb.misses                    7846 # total number of misses
dtlb.replacements              7718 # total number of replacements
dtlb.writebacks                   0 # total number of writebacks
dtlb.invalidations                0 # total number of invalidations
dtlb.miss_rate               0.0002 # miss rate (i.e., misses/ref)
dtlb.repl_rate               0.0002 # replacement rate (i.e., repls/ref)
dtlb.wb_rate                 0.0000 # writeback rate (i.e., wrbks/ref)
dtlb.inv_rate                0.0000 # invalidation rate (i.e., invs/ref)
rename_power           138960253.9301 # total power usage of rename unit
bpred_power            132393246.0832 # total power usage of bpred unit
window_power           1836082933.3472 # total power usage of instruction window
lsq_power              997531231.8065 # total power usage of load/store queue
regfile_power          1068048518.2286 # total power usage of arch. regfile
icache_power           128846240.9979 # total power usage of icache
dcache_power           1094256083.5709 # total power usage of dcache
dcache2_power          131833552.0159 # total power usage of dcache2
alu_power              1411484403.2948 # total power usage of alu
falu_power             1213493379.1879 # total power usage of falu
resultbus_power        1331011198.8120 # total power usage of resultbus
clock_power            2669648526.6401 # total power usage of clock
avg_rename_power             3.2707 # avg power usage of rename unit
avg_bpred_power              3.1162 # avg power usage of bpred unit
avg_window_power            43.2160 # avg power usage of instruction window
avg_lsq_power               23.4790 # avg power usage of lsq
avg_regfile_power           25.1387 # avg power usage of arch. regfile
avg_icache_power             3.0327 # avg power usage of icache
avg_dcache_power            25.7556 # avg power usage of dcache
avg_dcache2_power            3.1030 # avg power usage of dcache2
avg_alu_power               33.2222 # avg power usage of alu
avg_falu_power              28.5621 # avg power usage of falu
avg_resultbus_power         31.3281 # avg power usage of resultbus
avg_clock_power             62.8357 # avg power usage of clock
fetch_stage_power      261239487.0811 # total power usage of fetch stage
dispatch_stage_power   138960253.9301 # total power usage of dispatch stage
issue_stage_power      6802199402.8473 # total power usage of issue stage
avg_fetch_power              6.1488 # average power of fetch unit per cycle
avg_dispatch_power           3.2707 # average power of dispatch unit per cycle
avg_issue_power            160.1039 # average power of issue unit per cycle
total_power            10940096188.7273 # total power per cycle
avg_total_power_cycle      257.4979 # average total power per cycle
avg_total_power_cycle_nofp_nod2     225.8328 # average total power per cycle
avg_total_power_insn       109.4010 # average total power per insn
avg_total_power_insn_nofp_nod2      95.9477 # average total power per insn
rename_power_cc1       73503122.2579 # total power usage of rename unit_cc1
bpred_power_cc1              0.0000 # total power usage of bpred unit_cc1
window_power_cc1       1047022004.2050 # total power usage of instruction window_cc1
lsq_power_cc1          285791951.8878 # total power usage of lsq_cc1
regfile_power_cc1      556084693.0009 # total power usage of arch. regfile_cc1
icache_power_cc1       69731072.8281 # total power usage of icache_cc1
dcache_power_cc1       440537580.0108 # total power usage of dcache_cc1
dcache2_power_cc1      5221405.0018 # total power usage of dcache2_cc1
alu_power_cc1          121223232.2929 # total power usage of alu_cc1
resultbus_power_cc1    767618673.8646 # total power usage of resultbus_cc1
clock_power_cc1        1244468732.1904 # total power usage of clock_cc1
avg_rename_power_cc1         1.7300 # avg power usage of rename unit_cc1
avg_bpred_power_cc1          0.0000 # avg power usage of bpred unit_cc1
avg_window_power_cc1        24.6438 # avg power usage of instruction window_cc1
avg_lsq_power_cc1            6.7267 # avg power usage of lsq_cc1
avg_regfile_power_cc1       13.0886 # avg power usage of arch. regfile_cc1
avg_icache_power_cc1         1.6413 # avg power usage of icache_cc1
avg_dcache_power_cc1        10.3690 # avg power usage of dcache_cc1
avg_dcache2_power_cc1        0.1229 # avg power usage of dcache2_cc1
avg_alu_power_cc1            2.8532 # avg power usage of alu_cc1
avg_resultbus_power_cc1      18.0675 # avg power usage of resultbus_cc1
avg_clock_power_cc1         29.2912 # avg power usage of clock_cc1
fetch_stage_power_cc1  69731072.8281 # total power usage of fetch stage_cc1
dispatch_stage_power_cc1 73503122.2579 # total power usage of dispatch stage_cc1
issue_stage_power_cc1  2667414847.2630 # total power usage of issue stage_cc1
avg_fetch_power_cc1          1.6413 # average power of fetch unit per cycle_cc1
avg_dispatch_power_cc1       1.7300 # average power of dispatch unit per cycle_cc1
avg_issue_power_cc1         62.7832 # average power of issue unit per cycle_cc1
total_power_cycle_cc1  4611202467.5402 # total power per cycle_cc1
avg_total_power_cycle_cc1     108.5342 # average total power per cycle_cc1
avg_total_power_insn_cc1      46.1120 # average total power per insn_cc1
rename_power_cc2       20441990.7537 # total power usage of rename unit_cc2
bpred_power_cc2              0.0000 # total power usage of bpred unit_cc2
window_power_cc2       385977562.5109 # total power usage of instruction window_cc2
lsq_power_cc2          63814324.4805 # total power usage of lsq_cc2
regfile_power_cc2      50953825.0795 # total power usage of arch. regfile_cc2
icache_power_cc2       69731072.8281 # total power usage of icache_cc2
dcache_power_cc2       118882701.2358 # total power usage of dcache_cc2
dcache2_power_cc2       697654.2917 # total power usage of dcache2_cc2
alu_power_cc2          116494022.8765 # total power usage of alu_cc2
resultbus_power_cc2    207896510.2032 # total power usage of resultbus_cc2
clock_power_cc2        389835082.5743 # total power usage of clock_cc2
avg_rename_power_cc2         0.4811 # avg power usage of rename unit_cc2
avg_bpred_power_cc2          0.0000 # avg power usage of bpred unit_cc2
avg_window_power_cc2         9.0848 # avg power usage of instruction window_cc2
avg_lsq_power_cc2            1.5020 # avg power usage of instruction lsq_cc2
avg_regfile_power_cc2        1.1993 # avg power usage of arch. regfile_cc2
avg_icache_power_cc2         1.6413 # avg power usage of icache_cc2
avg_dcache_power_cc2         2.7982 # avg power usage of dcache_cc2
avg_dcache2_power_cc2        0.0164 # avg power usage of dcache2_cc2
avg_alu_power_cc2            2.7419 # avg power usage of alu_cc2
avg_resultbus_power_cc2       4.8933 # avg power usage of resultbus_cc2
avg_clock_power_cc2          9.1756 # avg power usage of clock_cc2
fetch_stage_power_cc2  69731072.8281 # total power usage of fetch stage_cc2
dispatch_stage_power_cc2 20441990.7537 # total power usage of dispatch stage_cc2
issue_stage_power_cc2  893762775.5986 # total power usage of issue stage_cc2
avg_fetch_power_cc2          1.6413 # average power of fetch unit per cycle_cc2
avg_dispatch_power_cc2       0.4811 # average power of dispatch unit per cycle_cc2
avg_issue_power_cc2         21.0366 # average power of issue unit per cycle_cc2
total_power_cycle_cc2  1424724746.8342 # total power per cycle_cc2
avg_total_power_cycle_cc2      33.5339 # average total power per cycle_cc2
avg_total_power_insn_cc2      14.2472 # average total power per insn_cc2
rename_power_cc3       26987703.9463 # total power usage of rename unit_cc3
bpred_power_cc3        13239324.5968 # total power usage of bpred unit_cc3
window_power_cc3       454829412.2773 # total power usage of instruction window_cc3
lsq_power_cc3          134659715.4442 # total power usage of lsq_cc3
regfile_power_cc3      97057751.2255 # total power usage of arch. regfile_cc3
icache_power_cc3       75642589.6690 # total power usage of icache_cc3
dcache_power_cc3       184287804.4389 # total power usage of dcache_cc3
dcache2_power_cc3      13358869.4308 # total power usage of dcache2_cc3
alu_power_cc3          245520139.6702 # total power usage of alu_cc3
resultbus_power_cc3    259118343.3931 # total power usage of resultbus_cc3
clock_power_cc3        525412410.3376 # total power usage of clock_cc3
avg_rename_power_cc3         0.6352 # avg power usage of rename unit_cc3
avg_bpred_power_cc3          0.3116 # avg power usage of bpred unit_cc3
avg_window_power_cc3        10.7054 # avg power usage of instruction window_cc3
avg_lsq_power_cc3            3.1695 # avg power usage of instruction lsq_cc3
avg_regfile_power_cc3        2.2845 # avg power usage of arch. regfile_cc3
avg_icache_power_cc3         1.7804 # avg power usage of icache_cc3
avg_dcache_power_cc3         4.3376 # avg power usage of dcache_cc3
avg_dcache2_power_cc3        0.3144 # avg power usage of dcache2_cc3
avg_alu_power_cc3            5.7788 # avg power usage of alu_cc3
avg_resultbus_power_cc3       6.0989 # avg power usage of resultbus_cc3
avg_clock_power_cc3         12.3667 # avg power usage of clock_cc3
fetch_stage_power_cc3  88881914.2658 # total power usage of fetch stage_cc3
dispatch_stage_power_cc3 26987703.9463 # total power usage of dispatch stage_cc3
issue_stage_power_cc3  1291774284.6547 # total power usage of issue stage_cc3
avg_fetch_power_cc3          2.0920 # average power of fetch unit per cycle_cc3
avg_dispatch_power_cc3       0.6352 # average power of dispatch unit per cycle_cc3
avg_issue_power_cc3         30.4046 # average power of issue unit per cycle_cc3
total_power_cycle_cc3  2030114064.4299 # total power per cycle_cc3
avg_total_power_cycle_cc3      47.7830 # average total power per cycle_cc3
avg_total_power_insn_cc3      20.3011 # average total power per insn_cc3
total_rename_access       100000000 # total number accesses of rename unit
total_bpred_access                0 # total number accesses of bpred unit
total_window_access       351419443 # total number accesses of instruction window
total_lsq_access           38295004 # total number accesses of load/store queue
total_regfile_access      107086162 # total number accesses of arch. regfile
total_icache_access       212914385 # total number accesses of icache
total_dcache_access        36926412 # total number accesses of dcache
total_dcache2_access        1798671 # total number accesses of dcache2
total_alu_access           99991713 # total number accesses of alu
total_resultbus_access    113256106 # total number accesses of resultbus
avg_rename_access            2.3537 # avg number accesses of rename unit
avg_bpred_access             0.0000 # avg number accesses of bpred unit
avg_window_access            8.2714 # avg number accesses of instruction window
avg_lsq_access               0.9014 # avg number accesses of lsq
avg_regfile_access           2.5205 # avg number accesses of arch. regfile
avg_icache_access            5.0114 # avg number accesses of icache
avg_dcache_access            0.8691 # avg number accesses of dcache
avg_dcache2_access           0.0423 # avg number accesses of dcache2
avg_alu_access               2.3535 # avg number accesses of alu
avg_resultbus_access         2.6657 # avg number accesses of resultbus
max_rename_access                16 # max number accesses of rename unit
max_bpred_access                  0 # max number accesses of bpred unit
max_window_access                47 # max number accesses of instruction window
max_lsq_access                   17 # max number accesses of load/store queue
max_regfile_access               39 # max number accesses of arch. regfile
max_icache_access                16 # max number accesses of icache
max_dcache_access                13 # max number accesses of dcache
max_dcache2_access               10 # max number accesses of dcache2
max_alu_access                    7 # max number accesses of alu
max_resultbus_access             34 # max number accesses of resultbus
max_cycle_power_cc1        197.8004 # maximum cycle power usage of cc1
max_cycle_power_cc2        129.1673 # maximum cycle power usage of cc2
max_cycle_power_cc3        136.1988 # maximum cycle power usage of cc3
sim_invalid_addrs                 0 # total non-speculative bogus addresses seen (debug var)
ld_text_base           0x0120000000 # program text (code) segment base
ld_text_size                1990656 # program text (code) size in bytes
ld_data_base           0x0140000000 # program initialized data segment base
ld_data_size                 306320 # program init'ed `.data' and uninit'ed `.bss' size in bytes
ld_stack_base          0x011ff9b000 # program stack segment base (highest address in stack)
ld_stack_size                 16384 # program initial stack size
ld_prog_entry          0x012012858c # program entry point (initial PC)
ld_environ_base        0x011ff83680 # program environment base address address
ld_target_big_endian              0 # target executable endian-ness, non-zero if big endian
mem.page_count                  822 # total number of pages allocated
mem.page_mem                  6576k # total size of memory pages allocated
mem.ptab_misses               50751 # total first level page table misses
mem.ptab_accesses         858882444 # total page table accesses
mem.ptab_miss_rate           0.0001 # first level page table miss rate

