sim-outorder: SimpleScalar/Alpha Tool Set version 3.0 of August, 2003.
Copyright (c) 1994-2003 by Todd M. Austin, Ph.D. and SimpleScalar, LLC.
All Rights Reserved. This version of SimpleScalar is licensed for academic
non-commercial use.  No portion of this work may be used by any commercial
entity, or for any commercial purpose, without the prior written permission
of SimpleScalar, LLC (info@simplescalar.com).


Processor Parameters:
Issue Width: 16
Window Size: 64
Number of Virtual Registers: 32
Number of Physical Registers: 64
Datapath Width: 64
Total Power Consumption: 259.498
Branch Predictor Power Consumption: 3.11615  (1.21%)
 branch target buffer power (W): 2.49493
 local predict power (W): 0.354432
 global predict power (W): 0.0996078
 chooser power (W): 0.0702439
 RAS power (W): 0.0969383
Rename Logic Power Consumption: 3.27072  (1.27%)
 Instruction Decode Power (W): 0.0639661
 RAT decode_power (W): 0.454058
 RAT wordline_power (W): 0.227603
 RAT bitline_power (W): 2.30694
 DCL Comparators (W): 0.218151
Instruction Window Power Consumption: 43.216  (16.8%)
 tagdrive (W): 2.9395
 tagmatch (W): 0.989695
 Selection Logic (W): 0.225484
 decode_power (W): 0.976583
 wordline_power (W): 1.0557
 bitline_power (W): 37.0291
Load/Store Queue Power Consumption: 23.479  (9.12%)
 tagdrive (W): 11.1732
 tagmatch (W): 3.86294
 decode_power (W): 0.325528
 wordline_power (W): 0.139808
 bitline_power (W): 7.97753
Arch. Register File Power Consumption: 25.1387  (9.76%)
 decode_power (W): 0.454058
 wordline_power (W): 1.0557
 bitline_power (W): 23.629
Result Bus Power Consumption: 31.3281  (12.2%)
Total Clock Power: 62.8357  (24.4%)
Int ALU Power: 4.66013  (1.81%)
FP ALU Power: 28.5621  (11.1%)
Instruction Cache Power Consumption: 2.76773  (1.07%)
 decode_power (W): 0.151353
 wordline_power (W): 0.180479
 bitline_power (W): 1.42251
 senseamp_power (W): 0.768
 tagarray_power (W): 0.245382
Itlb_power (W): 0.264936 (0.103%)
Data Cache Power Consumption: 22.1418  (8.6%)
 decode_power (W): 1.21082
 wordline_power (W): 1.44383
 bitline_power (W): 11.3801
 senseamp_power (W): 6.144
 tagarray_power (W): 1.96306
Dtlb_power (W): 3.61376 (1.4%)
Level 2 Cache Power Consumption: 3.10298 (1.21%)
 decode_power (W): 0.19487
 wordline_power (W): 0.0430878
 bitline_power (W): 1.77274
 senseamp_power (W): 0.192
 tagarray_power (W): 0.900275
sim: loading EIO file: ../benchmarks/177.mesa.spec_ref.eio.gz
sim: command line: ./sim-outorder -config ../configs/current.config ../benchmarks/177.mesa.spec_ref.eio.gz 

sim: simulation started @ Tue Nov 24 13:37:50 2015, options follow:

sim-outorder: This simulator implements a very detailed out-of-order issue
superscalar processor with a two-level memory system and speculative
execution support.  This simulator is a performance simulator, tracking the
latency of all pipeline operations.

# -config                     # load configuration from a file
# -dumpconfig                 # dump configuration to a file
# -h                    false # print help message    
# -v                    false # verbose operation     
# -d                    false # enable debug message  
# -i                    false # start in Dlite debugger
-seed                       1 # random number generator seed (0 for timer seed)
# -q                    false # initialize and terminate immediately
# -chkpt               <null> # restore EIO trace execution from <fname>
# -redir:sim     ../results/29_23_memport/177.mesa.spec_ref.eio.gz.out # redirect simulator output to file (non-interactive only)
# -redir:prog       /dev/null # redirect simulated program output to file
-nice                       0 # simulator scheduling priority
-freq            600000000.0000 # frequency             
-max:inst           100000000 # maximum number of inst's to execute
-fastfwd                    0 # number of insts skipped before timing starts
# -ptrace              <null> # generate pipetrace, i.e., <fname|stdout|stderr> <range>
-fetch:ifqsize             16 # instruction fetch queue size (in insts)
-fetch:mplat               15 # extra branch mis-prediction latency
-fetch:speed                1 # speed of front-end of machine relative to execution core
-bpred                perfect # branch predictor type {nottaken|taken|perfect|bimod|2lev|comb}
-bpred:bimod     2048 # bimodal predictor config (<table size>)
-bpred:2lev      1 8192 8 0 # 2-level predictor config (<l1size> <l2size> <hist_size> <xor>)
-bpred:comb      1024 # combining predictor config (<meta_table_size>)
-bpred:ras                  8 # return address stack size (0 for no return stack)
-bpred:btb       512 4 # BTB config (<num_sets> <associativity>)
# -bpred:spec_update       <null> # speculative predictors update in {ID|WB} (default non-spec)
-decode:width              16 # instruction decode B/W (insts/cycle)
-issue:width               16 # instruction issue B/W (insts/cycle)
-issue:inorder          false # run pipeline with in-order issue
-issue:wrongpath         true # issue instructions down wrong execution paths
-commit:width              16 # instruction commit B/W (insts/cycle)
-ruu:size                  64 # register update unit (RUU) size
-lsq:size                  64 # load/store queue (LSQ) size
-cache:dl1       dl1:32:64:8:f # l1 data cache config, i.e., {<config>|none}
-cache:dl1lat               1 # l1 data cache hit latency (in cycles)
-cache:dl2       dl2:256:64:8:f # l2 data cache config, i.e., {<config>|none}
-cache:dl2lat               2 # l2 data cache hit latency (in cycles)
-cache:il1       il1:32:64:8:f # l1 inst cache config, i.e., {<config>|dl1|dl2|none}
-cache:il1lat               1 # l1 instruction cache hit latency (in cycles)
-cache:il2                dl2 # l2 instruction cache config, i.e., {<config>|dl2|none}
-cache:il2lat               2 # l2 instruction cache hit latency (in cycles)
-cache:flush            false # flush caches on system calls
-cache:icompress        false # convert 64-bit inst addresses to 32-bit inst equivalents
-mem:lat         103 1 # memory access latency (<first_chunk> <inter_chunk>)
-mem:width                  8 # memory access bus width (in bytes)
-tlb:itlb        itlb:16:4096:4:l # instruction TLB config, i.e., {<config>|none}
-tlb:dtlb        dtlb:32:4096:4:l # data TLB config, i.e., {<config>|none}
-tlb:lat                   30 # inst/data TLB miss latency (in cycles)
-res:ialu                   4 # total number of integer ALU's available
-res:imult                  2 # total number of integer multiplier/dividers available
-res:memport                8 # total number of memory system ports available (to CPU)
-res:fpalu                  8 # total number of floating point ALU's available
-res:fpmult                 2 # total number of floating point multiplier/dividers available
# -pcstat              <null> # profile stat(s) against text addr's (mult uses ok)
-bugcompat              false # operate in backward-compatible bugs mode (for testing only)

  Pipetrace range arguments are formatted as follows:

    {{@|#}<start>}:{{@|#|+}<end>}

  Both ends of the range are optional, if neither are specified, the entire
  execution is traced.  Ranges that start with a `@' designate an address
  range to be traced, those that start with an `#' designate a cycle count
  range.  All other range values represent an instruction count range.  The
  second argument, if specified with a `+', indicates a value relative
  to the first argument, e.g., 1000:+100 == 1000:1100.  Program symbols may
  be used in all contexts.

    Examples:   -ptrace FOO.trc #0:#1000
                -ptrace BAR.trc @2000:
                -ptrace BLAH.trc :1500
                -ptrace UXXE.trc :
                -ptrace FOOBAR.trc @main:+278

  Branch predictor configuration examples for 2-level predictor:
    Configurations:   N, M, W, X
      N   # entries in first level (# of shift register(s))
      W   width of shift register(s)
      M   # entries in 2nd level (# of counters, or other FSM)
      X   (yes-1/no-0) xor history and address for 2nd level index
    Sample predictors:
      GAg     : 1, W, 2^W, 0
      GAp     : 1, W, M (M > 2^W), 0
      PAg     : N, W, 2^W, 0
      PAp     : N, W, M (M == 2^(N+W)), 0
      gshare  : 1, W, 2^W, 1
  Predictor `comb' combines a bimodal and a 2-level predictor.

  The cache config parameter <config> has the following format:

    <name>:<nsets>:<bsize>:<assoc>:<repl>

    <name>   - name of the cache being defined
    <nsets>  - number of sets in the cache
    <bsize>  - block size of the cache
    <assoc>  - associativity of the cache
    <repl>   - block replacement strategy, 'l'-LRU, 'f'-FIFO, 'r'-random

    Examples:   -cache:dl1 dl1:4096:32:1:l
                -dtlb dtlb:128:4096:32:r

  Cache levels can be unified by pointing a level of the instruction cache
  hierarchy at the data cache hiearchy using the "dl1" and "dl2" cache
  configuration arguments.  Most sensible combinations are supported, e.g.,

    A unified l2 cache (il2 is pointed at dl2):
      -cache:il1 il1:128:64:1:l -cache:il2 dl2
      -cache:dl1 dl1:256:32:1:l -cache:dl2 ul2:1024:64:2:l

    Or, a fully unified cache hierarchy (il1 pointed at dl1):
      -cache:il1 dl1
      -cache:dl1 ul1:256:32:1:l -cache:dl2 ul2:1024:64:2:l



sim: ** starting performance simulation **

sim: ** simulation statistics **
sim_num_insn              100000005 # total number of instructions committed
sim_num_refs               39005167 # total number of loads and stores committed
sim_num_loads              27138656 # total number of loads committed
sim_num_stores         11866511.0000 # total number of stores committed
sim_num_branches            8691669 # total number of branches committed
sim_elapsed_time                123 # total simulation time in seconds
sim_inst_rate           813008.1707 # simulation speed (in insts/sec)
sim_total_insn            100000005 # total number of instructions executed
sim_total_refs             39005167 # total number of loads and stores executed
sim_total_loads            27138656 # total number of loads executed
sim_total_stores       11866511.0000 # total number of stores executed
sim_total_branches          8691669 # total number of branches executed
sim_cycle                  31280842 # total simulation time in cycles
sim_IPC                      3.1968 # instructions per cycle
sim_CPI                      0.3128 # cycles per instruction
sim_exec_BW                  3.1968 # total instructions (mis-spec + committed) per cycle
sim_IPB                     11.5053 # instruction per branch
IFQ_count                 482111793 # cumulative IFQ occupancy
IFQ_fcount                 30049787 # cumulative IFQ full count
ifq_occupancy               15.4124 # avg IFQ occupancy (insn's)
ifq_rate                     3.1968 # avg IFQ dispatch rate (insn/cycle)
ifq_latency                  4.8211 # avg IFQ occupant latency (cycle's)
ifq_full                     0.9606 # fraction of time (cycle's) IFQ was full
RUU_count                1909672570 # cumulative RUU occupancy
RUU_fcount                 25450259 # cumulative RUU full count
ruu_occupancy               61.0493 # avg RUU occupancy (insn's)
ruu_rate                     3.1968 # avg RUU dispatch rate (insn/cycle)
ruu_latency                 19.0967 # avg RUU occupant latency (cycle's)
ruu_full                     0.8136 # fraction of time (cycle's) RUU was full
LSQ_count                 743202982 # cumulative LSQ occupancy
LSQ_fcount                        0 # cumulative LSQ full count
lsq_occupancy               23.7590 # avg LSQ occupancy (insn's)
lsq_rate                     3.1968 # avg LSQ dispatch rate (insn/cycle)
lsq_latency                  7.4320 # avg LSQ occupant latency (cycle's)
lsq_full                     0.0000 # fraction of time (cycle's) LSQ was full
sim_slip                 2791880020 # total number of slip cycles
avg_sim_slip                27.9188 # the average slip between issue and retirement
il1.accesses              158821673 # total number of accesses
il1.hits                  158655575 # total number of hits
il1.misses                   166098 # total number of misses
il1.replacements             165842 # total number of replacements
il1.writebacks                    0 # total number of writebacks
il1.invalidations                 0 # total number of invalidations
il1.miss_rate                0.0010 # miss rate (i.e., misses/ref)
il1.repl_rate                0.0010 # replacement rate (i.e., repls/ref)
il1.wb_rate                  0.0000 # writeback rate (i.e., wrbks/ref)
il1.inv_rate                 0.0000 # invalidation rate (i.e., invs/ref)
dl1.accesses               37005611 # total number of accesses
dl1.hits                   36740820 # total number of hits
dl1.misses                   264791 # total number of misses
dl1.replacements             264535 # total number of replacements
dl1.writebacks               204456 # total number of writebacks
dl1.invalidations                 0 # total number of invalidations
dl1.miss_rate                0.0072 # miss rate (i.e., misses/ref)
dl1.repl_rate                0.0071 # replacement rate (i.e., repls/ref)
dl1.wb_rate                  0.0055 # writeback rate (i.e., wrbks/ref)
dl1.inv_rate                 0.0000 # invalidation rate (i.e., invs/ref)
dl2.accesses                 635345 # total number of accesses
dl2.hits                     461379 # total number of hits
dl2.misses                   173966 # total number of misses
dl2.replacements             171918 # total number of replacements
dl2.writebacks               155486 # total number of writebacks
dl2.invalidations                 0 # total number of invalidations
dl2.miss_rate                0.2738 # miss rate (i.e., misses/ref)
dl2.repl_rate                0.2706 # replacement rate (i.e., repls/ref)
dl2.wb_rate                  0.2447 # writeback rate (i.e., wrbks/ref)
dl2.inv_rate                 0.0000 # invalidation rate (i.e., invs/ref)
itlb.accesses             158821673 # total number of accesses
itlb.hits                 158821620 # total number of hits
itlb.misses                      53 # total number of misses
itlb.replacements                 2 # total number of replacements
itlb.writebacks                   0 # total number of writebacks
itlb.invalidations                0 # total number of invalidations
itlb.miss_rate               0.0000 # miss rate (i.e., misses/ref)
itlb.repl_rate               0.0000 # replacement rate (i.e., repls/ref)
itlb.wb_rate                 0.0000 # writeback rate (i.e., wrbks/ref)
itlb.inv_rate                0.0000 # invalidation rate (i.e., invs/ref)
dtlb.accesses              39005147 # total number of accesses
dtlb.hits                  38960835 # total number of hits
dtlb.misses                   44312 # total number of misses
dtlb.replacements             44184 # total number of replacements
dtlb.writebacks                   0 # total number of writebacks
dtlb.invalidations                0 # total number of invalidations
dtlb.miss_rate               0.0011 # miss rate (i.e., misses/ref)
dtlb.repl_rate               0.0011 # replacement rate (i.e., repls/ref)
dtlb.wb_rate                 0.0000 # writeback rate (i.e., wrbks/ref)
dtlb.inv_rate                0.0000 # invalidation rate (i.e., invs/ref)
rename_power           102310829.2356 # total power usage of rename unit
bpred_power            97475806.2303 # total power usage of bpred unit
window_power           1351833794.5688 # total power usage of instruction window
lsq_power              734442004.7687 # total power usage of load/store queue
regfile_power          786361038.0132 # total power usage of arch. regfile
icache_power           94864289.4724 # total power usage of icache
dcache_power           805656611.0723 # total power usage of dcache
dcache2_power          97063726.0852 # total power usage of dcache2
alu_power              1039219025.0482 # total power usage of alu
falu_power             893446221.6996 # total power usage of falu
resultbus_power        979969851.3314 # total power usage of resultbus
clock_power            1965554514.2431 # total power usage of clock
avg_rename_power             3.2707 # avg power usage of rename unit
avg_bpred_power              3.1162 # avg power usage of bpred unit
avg_window_power            43.2160 # avg power usage of instruction window
avg_lsq_power               23.4790 # avg power usage of lsq
avg_regfile_power           25.1387 # avg power usage of arch. regfile
avg_icache_power             3.0327 # avg power usage of icache
avg_dcache_power            25.7556 # avg power usage of dcache
avg_dcache2_power            3.1030 # avg power usage of dcache2
avg_alu_power               33.2222 # avg power usage of alu
avg_falu_power              28.5621 # avg power usage of falu
avg_resultbus_power         31.3281 # avg power usage of resultbus
avg_clock_power             62.8357 # avg power usage of clock
fetch_stage_power      192340095.7027 # total power usage of fetch stage
dispatch_stage_power   102310829.2356 # total power usage of dispatch stage
issue_stage_power      5008185012.8745 # total power usage of issue stage
avg_fetch_power              6.1488 # average power of fetch unit per cycle
avg_dispatch_power           3.2707 # average power of dispatch unit per cycle
avg_issue_power            160.1039 # average power of issue unit per cycle
total_power            8054751490.0690 # total power per cycle
avg_total_power_cycle      257.4979 # average total power per cycle
avg_total_power_cycle_nofp_nod2     225.8328 # average total power per cycle
avg_total_power_insn        80.5475 # average total power per insn
avg_total_power_insn_nofp_nod2      70.6424 # average total power per insn
rename_power_cc1       64781214.9347 # total power usage of rename unit_cc1
bpred_power_cc1              0.0000 # total power usage of bpred unit_cc1
window_power_cc1       964290666.5352 # total power usage of instruction window_cc1
lsq_power_cc1          260072664.1683 # total power usage of lsq_cc1
regfile_power_cc1      436305444.8279 # total power usage of arch. regfile_cc1
icache_power_cc1       60190502.3294 # total power usage of icache_cc1
dcache_power_cc1       406339298.2122 # total power usage of dcache_cc1
dcache2_power_cc1      1320437.6326 # total power usage of dcache2_cc1
alu_power_cc1          310454681.9321 # total power usage of alu_cc1
resultbus_power_cc1    725315068.6308 # total power usage of resultbus_cc1
clock_power_cc1        868076692.9824 # total power usage of clock_cc1
avg_rename_power_cc1         2.0710 # avg power usage of rename unit_cc1
avg_bpred_power_cc1          0.0000 # avg power usage of bpred unit_cc1
avg_window_power_cc1        30.8269 # avg power usage of instruction window_cc1
avg_lsq_power_cc1            8.3141 # avg power usage of lsq_cc1
avg_regfile_power_cc1       13.9480 # avg power usage of arch. regfile_cc1
avg_icache_power_cc1         1.9242 # avg power usage of icache_cc1
avg_dcache_power_cc1        12.9900 # avg power usage of dcache_cc1
avg_dcache2_power_cc1        0.0422 # avg power usage of dcache2_cc1
avg_alu_power_cc1            9.9248 # avg power usage of alu_cc1
avg_resultbus_power_cc1      23.1872 # avg power usage of resultbus_cc1
avg_clock_power_cc1         27.7511 # avg power usage of clock_cc1
fetch_stage_power_cc1  60190502.3294 # total power usage of fetch stage_cc1
dispatch_stage_power_cc1 64781214.9347 # total power usage of dispatch stage_cc1
issue_stage_power_cc1  2667792817.1114 # total power usage of issue stage_cc1
avg_fetch_power_cc1          1.9242 # average power of fetch unit per cycle_cc1
avg_dispatch_power_cc1       2.0710 # average power of dispatch unit per cycle_cc1
avg_issue_power_cc1         85.2852 # average power of issue unit per cycle_cc1
total_power_cycle_cc1  4097146672.1857 # total power per cycle_cc1
avg_total_power_cycle_cc1     130.9794 # average total power per cycle_cc1
avg_total_power_insn_cc1      40.9715 # average total power per insn_cc1
rename_power_cc2       20441991.7756 # total power usage of rename unit_cc2
bpred_power_cc2              0.0000 # total power usage of bpred unit_cc2
window_power_cc2       382078757.8214 # total power usage of instruction window_cc2
lsq_power_cc2          62849470.2215 # total power usage of lsq_cc2
regfile_power_cc2      59672758.4210 # total power usage of arch. regfile_cc2
icache_power_cc2       60190502.3294 # total power usage of icache_cc2
dcache_power_cc2       119137678.3795 # total power usage of dcache_cc2
dcache2_power_cc2       246432.5972 # total power usage of dcache2_cc2
alu_power_cc2          148664148.7082 # total power usage of alu_cc2
resultbus_power_cc2    217424944.4808 # total power usage of resultbus_cc2
clock_power_cc2        290290568.9634 # total power usage of clock_cc2
avg_rename_power_cc2         0.6535 # avg power usage of rename unit_cc2
avg_bpred_power_cc2          0.0000 # avg power usage of bpred unit_cc2
avg_window_power_cc2        12.2145 # avg power usage of instruction window_cc2
avg_lsq_power_cc2            2.0092 # avg power usage of instruction lsq_cc2
avg_regfile_power_cc2        1.9076 # avg power usage of arch. regfile_cc2
avg_icache_power_cc2         1.9242 # avg power usage of icache_cc2
avg_dcache_power_cc2         3.8086 # avg power usage of dcache_cc2
avg_dcache2_power_cc2        0.0079 # avg power usage of dcache2_cc2
avg_alu_power_cc2            4.7526 # avg power usage of alu_cc2
avg_resultbus_power_cc2       6.9507 # avg power usage of resultbus_cc2
avg_clock_power_cc2          9.2801 # avg power usage of clock_cc2
fetch_stage_power_cc2  60190502.3294 # total power usage of fetch stage_cc2
dispatch_stage_power_cc2 20441991.7756 # total power usage of dispatch stage_cc2
issue_stage_power_cc2  930401432.2085 # total power usage of issue stage_cc2
avg_fetch_power_cc2          1.9242 # average power of fetch unit per cycle_cc2
avg_dispatch_power_cc2       0.6535 # average power of dispatch unit per cycle_cc2
avg_issue_power_cc2         29.7435 # average power of issue unit per cycle_cc2
total_power_cycle_cc2  1360997253.6979 # total power per cycle_cc2
avg_total_power_cycle_cc2      43.5090 # average total power per cycle_cc2
avg_total_power_insn_cc2      13.6100 # average total power per insn_cc2
rename_power_cc3       24194953.2170 # total power usage of rename unit_cc3
bpred_power_cc3        9747580.6156 # total power usage of bpred unit_cc3
window_power_cc3       409045409.7864 # total power usage of instruction window_cc3
lsq_power_cc3          109080380.3827 # total power usage of lsq_cc3
regfile_power_cc3      89118267.9827 # total power usage of arch. regfile_cc3
icache_power_cc3       63657881.0542 # total power usage of icache_cc3
dcache_power_cc3       159085299.9648 # total power usage of dcache_cc3
dcache2_power_cc3      9820761.4499 # total power usage of dcache2_cc3
alu_power_cc3          221540582.9321 # total power usage of alu_cc3
resultbus_power_cc3    238055072.8358 # total power usage of resultbus_cc3
clock_power_cc3        393854266.7309 # total power usage of clock_cc3
avg_rename_power_cc3         0.7735 # avg power usage of rename unit_cc3
avg_bpred_power_cc3          0.3116 # avg power usage of bpred unit_cc3
avg_window_power_cc3        13.0765 # avg power usage of instruction window_cc3
avg_lsq_power_cc3            3.4871 # avg power usage of instruction lsq_cc3
avg_regfile_power_cc3        2.8490 # avg power usage of arch. regfile_cc3
avg_icache_power_cc3         2.0350 # avg power usage of icache_cc3
avg_dcache_power_cc3         5.0857 # avg power usage of dcache_cc3
avg_dcache2_power_cc3        0.3140 # avg power usage of dcache2_cc3
avg_alu_power_cc3            7.0823 # avg power usage of alu_cc3
avg_resultbus_power_cc3       7.6103 # avg power usage of resultbus_cc3
avg_clock_power_cc3         12.5909 # avg power usage of clock_cc3
fetch_stage_power_cc3  73405461.6698 # total power usage of fetch stage_cc3
dispatch_stage_power_cc3 24194953.2170 # total power usage of dispatch stage_cc3
issue_stage_power_cc3  1146627507.3516 # total power usage of issue stage_cc3
avg_fetch_power_cc3          2.3467 # average power of fetch unit per cycle_cc3
avg_dispatch_power_cc3       0.7735 # average power of dispatch unit per cycle_cc3
avg_issue_power_cc3         36.6559 # average power of issue unit per cycle_cc3
total_power_cycle_cc3  1727200456.9521 # total power per cycle_cc3
avg_total_power_cycle_cc3      55.2159 # average total power per cycle_cc3
avg_total_power_insn_cc3      17.2720 # average total power per insn_cc3
total_rename_access       100000005 # total number accesses of rename unit
total_bpred_access                0 # total number accesses of bpred unit
total_window_access       361400478 # total number accesses of instruction window
total_lsq_access           41004683 # total number accesses of load/store queue
total_regfile_access      129191204 # total number accesses of arch. regfile
total_icache_access       158821673 # total number accesses of icache
total_dcache_access        37005611 # total number accesses of dcache
total_dcache2_access         635345 # total number accesses of dcache2
total_alu_access           99864401 # total number accesses of alu
total_resultbus_access    118446926 # total number accesses of resultbus
avg_rename_access            3.1968 # avg number accesses of rename unit
avg_bpred_access             0.0000 # avg number accesses of bpred unit
avg_window_access           11.5534 # avg number accesses of instruction window
avg_lsq_access               1.3109 # avg number accesses of lsq
avg_regfile_access           4.1300 # avg number accesses of arch. regfile
avg_icache_access            5.0773 # avg number accesses of icache
avg_dcache_access            1.1830 # avg number accesses of dcache
avg_dcache2_access           0.0203 # avg number accesses of dcache2
avg_alu_access               3.1925 # avg number accesses of alu
avg_resultbus_access         3.7866 # avg number accesses of resultbus
max_rename_access                16 # max number accesses of rename unit
max_bpred_access                  0 # max number accesses of bpred unit
max_window_access                52 # max number accesses of instruction window
max_lsq_access                   18 # max number accesses of load/store queue
max_regfile_access               43 # max number accesses of arch. regfile
max_icache_access                16 # max number accesses of icache
max_dcache_access                11 # max number accesses of dcache
max_dcache2_access                7 # max number accesses of dcache2
max_alu_access                   14 # max number accesses of alu
max_resultbus_access             35 # max number accesses of resultbus
max_cycle_power_cc1        221.3322 # maximum cycle power usage of cc1
max_cycle_power_cc2        142.2808 # maximum cycle power usage of cc2
max_cycle_power_cc3        145.2750 # maximum cycle power usage of cc3
sim_invalid_addrs                 0 # total non-speculative bogus addresses seen (debug var)
ld_text_base           0x0120000000 # program text (code) segment base
ld_text_size                 917504 # program text (code) size in bytes
ld_data_base           0x0140000000 # program initialized data segment base
ld_data_size                  91168 # program init'ed `.data' and uninit'ed `.bss' size in bytes
ld_stack_base          0x011ff9b000 # program stack segment base (highest address in stack)
ld_stack_size                 16384 # program initial stack size
ld_prog_entry          0x0120073d5c # program entry point (initial PC)
ld_environ_base        0x011ff96df0 # program environment base address address
ld_target_big_endian              0 # target executable endian-ness, non-zero if big endian
mem.page_count                 1310 # total number of pages allocated
mem.page_mem                 10480k # total size of memory pages allocated
mem.ptab_misses                1843 # total first level page table misses
mem.ptab_accesses         765573312 # total page table accesses
mem.ptab_miss_rate           0.0000 # first level page table miss rate

