sim-outorder: SimpleScalar/Alpha Tool Set version 3.0 of August, 2003.
Copyright (c) 1994-2003 by Todd M. Austin, Ph.D. and SimpleScalar, LLC.
All Rights Reserved. This version of SimpleScalar is licensed for academic
non-commercial use.  No portion of this work may be used by any commercial
entity, or for any commercial purpose, without the prior written permission
of SimpleScalar, LLC (info@simplescalar.com).


Processor Parameters:
Issue Width: 16
Window Size: 64
Number of Virtual Registers: 32
Number of Physical Registers: 64
Datapath Width: 64
Total Power Consumption: 259.498
Branch Predictor Power Consumption: 3.11615  (1.21%)
 branch target buffer power (W): 2.49493
 local predict power (W): 0.354432
 global predict power (W): 0.0996078
 chooser power (W): 0.0702439
 RAS power (W): 0.0969383
Rename Logic Power Consumption: 3.27072  (1.27%)
 Instruction Decode Power (W): 0.0639661
 RAT decode_power (W): 0.454058
 RAT wordline_power (W): 0.227603
 RAT bitline_power (W): 2.30694
 DCL Comparators (W): 0.218151
Instruction Window Power Consumption: 43.216  (16.8%)
 tagdrive (W): 2.9395
 tagmatch (W): 0.989695
 Selection Logic (W): 0.225484
 decode_power (W): 0.976583
 wordline_power (W): 1.0557
 bitline_power (W): 37.0291
Load/Store Queue Power Consumption: 23.479  (9.12%)
 tagdrive (W): 11.1732
 tagmatch (W): 3.86294
 decode_power (W): 0.325528
 wordline_power (W): 0.139808
 bitline_power (W): 7.97753
Arch. Register File Power Consumption: 25.1387  (9.76%)
 decode_power (W): 0.454058
 wordline_power (W): 1.0557
 bitline_power (W): 23.629
Result Bus Power Consumption: 31.3281  (12.2%)
Total Clock Power: 62.8357  (24.4%)
Int ALU Power: 4.66013  (1.81%)
FP ALU Power: 28.5621  (11.1%)
Instruction Cache Power Consumption: 2.76773  (1.07%)
 decode_power (W): 0.151353
 wordline_power (W): 0.180479
 bitline_power (W): 1.42251
 senseamp_power (W): 0.768
 tagarray_power (W): 0.245382
Itlb_power (W): 0.264936 (0.103%)
Data Cache Power Consumption: 22.1418  (8.6%)
 decode_power (W): 1.21082
 wordline_power (W): 1.44383
 bitline_power (W): 11.3801
 senseamp_power (W): 6.144
 tagarray_power (W): 1.96306
Dtlb_power (W): 3.61376 (1.4%)
Level 2 Cache Power Consumption: 3.10298 (1.21%)
 decode_power (W): 0.19487
 wordline_power (W): 0.0430878
 bitline_power (W): 1.77274
 senseamp_power (W): 0.192
 tagarray_power (W): 0.900275
sim: loading EIO file: ../benchmarks/179.art.110-ref.eio.gz
sim: command line: ./sim-outorder -config ../configs/current.config ../benchmarks/179.art.110-ref.eio.gz 

sim: simulation started @ Tue Nov 24 13:37:50 2015, options follow:

sim-outorder: This simulator implements a very detailed out-of-order issue
superscalar processor with a two-level memory system and speculative
execution support.  This simulator is a performance simulator, tracking the
latency of all pipeline operations.

# -config                     # load configuration from a file
# -dumpconfig                 # dump configuration to a file
# -h                    false # print help message    
# -v                    false # verbose operation     
# -d                    false # enable debug message  
# -i                    false # start in Dlite debugger
-seed                       1 # random number generator seed (0 for timer seed)
# -q                    false # initialize and terminate immediately
# -chkpt               <null> # restore EIO trace execution from <fname>
# -redir:sim     ../results/29_23_memport/179.art.110-ref.eio.gz.out # redirect simulator output to file (non-interactive only)
# -redir:prog       /dev/null # redirect simulated program output to file
-nice                       0 # simulator scheduling priority
-freq            600000000.0000 # frequency             
-max:inst           100000000 # maximum number of inst's to execute
-fastfwd                    0 # number of insts skipped before timing starts
# -ptrace              <null> # generate pipetrace, i.e., <fname|stdout|stderr> <range>
-fetch:ifqsize             16 # instruction fetch queue size (in insts)
-fetch:mplat               15 # extra branch mis-prediction latency
-fetch:speed                1 # speed of front-end of machine relative to execution core
-bpred                perfect # branch predictor type {nottaken|taken|perfect|bimod|2lev|comb}
-bpred:bimod     2048 # bimodal predictor config (<table size>)
-bpred:2lev      1 8192 8 0 # 2-level predictor config (<l1size> <l2size> <hist_size> <xor>)
-bpred:comb      1024 # combining predictor config (<meta_table_size>)
-bpred:ras                  8 # return address stack size (0 for no return stack)
-bpred:btb       512 4 # BTB config (<num_sets> <associativity>)
# -bpred:spec_update       <null> # speculative predictors update in {ID|WB} (default non-spec)
-decode:width              16 # instruction decode B/W (insts/cycle)
-issue:width               16 # instruction issue B/W (insts/cycle)
-issue:inorder          false # run pipeline with in-order issue
-issue:wrongpath         true # issue instructions down wrong execution paths
-commit:width              16 # instruction commit B/W (insts/cycle)
-ruu:size                  64 # register update unit (RUU) size
-lsq:size                  64 # load/store queue (LSQ) size
-cache:dl1       dl1:32:64:8:f # l1 data cache config, i.e., {<config>|none}
-cache:dl1lat               1 # l1 data cache hit latency (in cycles)
-cache:dl2       dl2:256:64:8:f # l2 data cache config, i.e., {<config>|none}
-cache:dl2lat               2 # l2 data cache hit latency (in cycles)
-cache:il1       il1:32:64:8:f # l1 inst cache config, i.e., {<config>|dl1|dl2|none}
-cache:il1lat               1 # l1 instruction cache hit latency (in cycles)
-cache:il2                dl2 # l2 instruction cache config, i.e., {<config>|dl2|none}
-cache:il2lat               2 # l2 instruction cache hit latency (in cycles)
-cache:flush            false # flush caches on system calls
-cache:icompress        false # convert 64-bit inst addresses to 32-bit inst equivalents
-mem:lat         103 1 # memory access latency (<first_chunk> <inter_chunk>)
-mem:width                  8 # memory access bus width (in bytes)
-tlb:itlb        itlb:16:4096:4:l # instruction TLB config, i.e., {<config>|none}
-tlb:dtlb        dtlb:32:4096:4:l # data TLB config, i.e., {<config>|none}
-tlb:lat                   30 # inst/data TLB miss latency (in cycles)
-res:ialu                   4 # total number of integer ALU's available
-res:imult                  2 # total number of integer multiplier/dividers available
-res:memport                8 # total number of memory system ports available (to CPU)
-res:fpalu                  8 # total number of floating point ALU's available
-res:fpmult                 2 # total number of floating point multiplier/dividers available
# -pcstat              <null> # profile stat(s) against text addr's (mult uses ok)
-bugcompat              false # operate in backward-compatible bugs mode (for testing only)

  Pipetrace range arguments are formatted as follows:

    {{@|#}<start>}:{{@|#|+}<end>}

  Both ends of the range are optional, if neither are specified, the entire
  execution is traced.  Ranges that start with a `@' designate an address
  range to be traced, those that start with an `#' designate a cycle count
  range.  All other range values represent an instruction count range.  The
  second argument, if specified with a `+', indicates a value relative
  to the first argument, e.g., 1000:+100 == 1000:1100.  Program symbols may
  be used in all contexts.

    Examples:   -ptrace FOO.trc #0:#1000
                -ptrace BAR.trc @2000:
                -ptrace BLAH.trc :1500
                -ptrace UXXE.trc :
                -ptrace FOOBAR.trc @main:+278

  Branch predictor configuration examples for 2-level predictor:
    Configurations:   N, M, W, X
      N   # entries in first level (# of shift register(s))
      W   width of shift register(s)
      M   # entries in 2nd level (# of counters, or other FSM)
      X   (yes-1/no-0) xor history and address for 2nd level index
    Sample predictors:
      GAg     : 1, W, 2^W, 0
      GAp     : 1, W, M (M > 2^W), 0
      PAg     : N, W, 2^W, 0
      PAp     : N, W, M (M == 2^(N+W)), 0
      gshare  : 1, W, 2^W, 1
  Predictor `comb' combines a bimodal and a 2-level predictor.

  The cache config parameter <config> has the following format:

    <name>:<nsets>:<bsize>:<assoc>:<repl>

    <name>   - name of the cache being defined
    <nsets>  - number of sets in the cache
    <bsize>  - block size of the cache
    <assoc>  - associativity of the cache
    <repl>   - block replacement strategy, 'l'-LRU, 'f'-FIFO, 'r'-random

    Examples:   -cache:dl1 dl1:4096:32:1:l
                -dtlb dtlb:128:4096:32:r

  Cache levels can be unified by pointing a level of the instruction cache
  hierarchy at the data cache hiearchy using the "dl1" and "dl2" cache
  configuration arguments.  Most sensible combinations are supported, e.g.,

    A unified l2 cache (il2 is pointed at dl2):
      -cache:il1 il1:128:64:1:l -cache:il2 dl2
      -cache:dl1 dl1:256:32:1:l -cache:dl2 ul2:1024:64:2:l

    Or, a fully unified cache hierarchy (il1 pointed at dl1):
      -cache:il1 dl1
      -cache:dl1 ul1:256:32:1:l -cache:dl2 ul2:1024:64:2:l



sim: ** starting performance simulation **

sim: ** simulation statistics **
sim_num_insn              100000008 # total number of instructions committed
sim_num_refs               32313279 # total number of loads and stores committed
sim_num_loads              24977029 # total number of loads committed
sim_num_stores         7336250.0000 # total number of stores committed
sim_num_branches           14258409 # total number of branches committed
sim_elapsed_time                195 # total simulation time in seconds
sim_inst_rate           512820.5538 # simulation speed (in insts/sec)
sim_total_insn            100000008 # total number of instructions executed
sim_total_refs             32313279 # total number of loads and stores executed
sim_total_loads            24977029 # total number of loads executed
sim_total_stores       7336250.0000 # total number of stores executed
sim_total_branches         14258409 # total number of branches executed
sim_cycle                 158248868 # total simulation time in cycles
sim_IPC                      0.6319 # instructions per cycle
sim_CPI                      1.5825 # cycles per instruction
sim_exec_BW                  0.6319 # total instructions (mis-spec + committed) per cycle
sim_IPB                      7.0134 # instruction per branch
IFQ_count                2531685184 # cumulative IFQ occupancy
IFQ_fcount                158230160 # cumulative IFQ full count
ifq_occupancy               15.9981 # avg IFQ occupancy (insn's)
ifq_rate                     0.6319 # avg IFQ dispatch rate (insn/cycle)
ifq_latency                 25.3168 # avg IFQ occupant latency (cycle's)
ifq_full                     0.9999 # fraction of time (cycle's) IFQ was full
RUU_count                9893159037 # cumulative RUU occupancy
RUU_fcount                146347035 # cumulative RUU full count
ruu_occupancy               62.5165 # avg RUU occupancy (insn's)
ruu_rate                     0.6319 # avg RUU dispatch rate (insn/cycle)
ruu_latency                 98.9316 # avg RUU occupant latency (cycle's)
ruu_full                     0.9248 # fraction of time (cycle's) RUU was full
LSQ_count                3459867260 # cumulative LSQ occupancy
LSQ_fcount                    48200 # cumulative LSQ full count
lsq_occupancy               21.8635 # avg LSQ occupancy (insn's)
lsq_rate                     0.6319 # avg LSQ dispatch rate (insn/cycle)
lsq_latency                 34.5987 # avg LSQ occupant latency (cycle's)
lsq_full                     0.0003 # fraction of time (cycle's) LSQ was full
sim_slip                13485337574 # total number of slip cycles
avg_sim_slip               134.8534 # the average slip between issue and retirement
il1.accesses              252498748 # total number of accesses
il1.hits                  252498578 # total number of hits
il1.misses                      170 # total number of misses
il1.replacements                  0 # total number of replacements
il1.writebacks                    0 # total number of writebacks
il1.invalidations                 0 # total number of invalidations
il1.miss_rate                0.0000 # miss rate (i.e., misses/ref)
il1.repl_rate                0.0000 # replacement rate (i.e., repls/ref)
il1.wb_rate                  0.0000 # writeback rate (i.e., wrbks/ref)
il1.inv_rate                 0.0000 # invalidation rate (i.e., invs/ref)
dl1.accesses               32024772 # total number of accesses
dl1.hits                   21556481 # total number of hits
dl1.misses                 10468291 # total number of misses
dl1.replacements           10468035 # total number of replacements
dl1.writebacks              3447533 # total number of writebacks
dl1.invalidations                 0 # total number of invalidations
dl1.miss_rate                0.3269 # miss rate (i.e., misses/ref)
dl1.repl_rate                0.3269 # replacement rate (i.e., repls/ref)
dl1.wb_rate                  0.1077 # writeback rate (i.e., wrbks/ref)
dl1.inv_rate                 0.0000 # invalidation rate (i.e., invs/ref)
dl2.accesses               13915994 # total number of accesses
dl2.hits                    3477231 # total number of hits
dl2.misses                 10438763 # total number of misses
dl2.replacements           10436715 # total number of replacements
dl2.writebacks              3424137 # total number of writebacks
dl2.invalidations                 0 # total number of invalidations
dl2.miss_rate                0.7501 # miss rate (i.e., misses/ref)
dl2.repl_rate                0.7500 # replacement rate (i.e., repls/ref)
dl2.wb_rate                  0.2461 # writeback rate (i.e., wrbks/ref)
dl2.inv_rate                 0.0000 # invalidation rate (i.e., invs/ref)
itlb.accesses             252498748 # total number of accesses
itlb.hits                 252498741 # total number of hits
itlb.misses                       7 # total number of misses
itlb.replacements                 0 # total number of replacements
itlb.writebacks                   0 # total number of writebacks
itlb.invalidations                0 # total number of invalidations
itlb.miss_rate               0.0000 # miss rate (i.e., misses/ref)
itlb.repl_rate               0.0000 # replacement rate (i.e., repls/ref)
itlb.wb_rate                 0.0000 # writeback rate (i.e., wrbks/ref)
itlb.inv_rate                0.0000 # invalidation rate (i.e., invs/ref)
dtlb.accesses              32313269 # total number of accesses
dtlb.hits                  32046593 # total number of hits
dtlb.misses                  266676 # total number of misses
dtlb.replacements            266548 # total number of replacements
dtlb.writebacks                   0 # total number of writebacks
dtlb.invalidations                0 # total number of invalidations
dtlb.miss_rate               0.0083 # miss rate (i.e., misses/ref)
dtlb.repl_rate               0.0082 # replacement rate (i.e., repls/ref)
dtlb.wb_rate                 0.0000 # writeback rate (i.e., wrbks/ref)
dtlb.inv_rate                0.0000 # invalidation rate (i.e., invs/ref)
rename_power           517587502.6765 # total power usage of rename unit
bpred_power            493127261.2019 # total power usage of bpred unit
window_power           6838887741.9574 # total power usage of instruction window
lsq_power              3715520712.4568 # total power usage of load/store queue
regfile_power          3978177555.5275 # total power usage of arch. regfile
icache_power           479915674.0961 # total power usage of icache
dcache_power           4075793328.4881 # total power usage of dcache
dcache2_power          491042563.3335 # total power usage of dcache2
alu_power              5257378771.0949 # total power usage of alu
falu_power             4519918397.2821 # total power usage of falu
resultbus_power        4957638909.5158 # total power usage of resultbus
clock_power            9943682980.8349 # total power usage of clock
avg_rename_power             3.2707 # avg power usage of rename unit
avg_bpred_power              3.1162 # avg power usage of bpred unit
avg_window_power            43.2160 # avg power usage of instruction window
avg_lsq_power               23.4790 # avg power usage of lsq
avg_regfile_power           25.1387 # avg power usage of arch. regfile
avg_icache_power             3.0327 # avg power usage of icache
avg_dcache_power            25.7556 # avg power usage of dcache
avg_dcache2_power            3.1030 # avg power usage of dcache2
avg_alu_power               33.2222 # avg power usage of alu
avg_falu_power              28.5621 # avg power usage of falu
avg_resultbus_power         31.3281 # avg power usage of resultbus
avg_clock_power             62.8357 # avg power usage of clock
fetch_stage_power      973042935.2980 # total power usage of fetch stage
dispatch_stage_power   517587502.6765 # total power usage of dispatch stage
issue_stage_power      25336262026.8466 # total power usage of issue stage
avg_fetch_power              6.1488 # average power of fetch unit per cycle
avg_dispatch_power           3.2707 # average power of dispatch unit per cycle
avg_issue_power            160.1039 # average power of issue unit per cycle
total_power            40748753001.1834 # total power per cycle
avg_total_power_cycle      257.4979 # average total power per cycle
avg_total_power_cycle_nofp_nod2     225.8328 # average total power per cycle
avg_total_power_insn       407.4875 # average total power per insn
avg_total_power_insn_nofp_nod2     357.3779 # average total power per insn
rename_power_cc1       81246777.2922 # total power usage of rename unit_cc1
bpred_power_cc1              0.0000 # total power usage of bpred unit_cc1
window_power_cc1       1994195727.5222 # total power usage of instruction window_cc1
lsq_power_cc1          262179314.1572 # total power usage of lsq_cc1
regfile_power_cc1      566080300.0370 # total power usage of arch. regfile_cc1
icache_power_cc1       75333643.9554 # total power usage of icache_cc1
dcache_power_cc1       416108738.8249 # total power usage of dcache_cc1
dcache2_power_cc1      23206223.4683 # total power usage of dcache2_cc1
alu_power_cc1          527495434.2605 # total power usage of alu_cc1
resultbus_power_cc1    1222167883.7773 # total power usage of resultbus_cc1
clock_power_cc1        1643861203.9012 # total power usage of clock_cc1
avg_rename_power_cc1         0.5134 # avg power usage of rename unit_cc1
avg_bpred_power_cc1          0.0000 # avg power usage of bpred unit_cc1
avg_window_power_cc1        12.6016 # avg power usage of instruction window_cc1
avg_lsq_power_cc1            1.6568 # avg power usage of lsq_cc1
avg_regfile_power_cc1        3.5772 # avg power usage of arch. regfile_cc1
avg_icache_power_cc1         0.4760 # avg power usage of icache_cc1
avg_dcache_power_cc1         2.6295 # avg power usage of dcache_cc1
avg_dcache2_power_cc1        0.1466 # avg power usage of dcache2_cc1
avg_alu_power_cc1            3.3333 # avg power usage of alu_cc1
avg_resultbus_power_cc1       7.7231 # avg power usage of resultbus_cc1
avg_clock_power_cc1         10.3878 # avg power usage of clock_cc1
fetch_stage_power_cc1  75333643.9554 # total power usage of fetch stage_cc1
dispatch_stage_power_cc1 81246777.2922 # total power usage of dispatch stage_cc1
issue_stage_power_cc1  4445353322.0104 # total power usage of issue stage_cc1
avg_fetch_power_cc1          0.4760 # average power of fetch unit per cycle_cc1
avg_dispatch_power_cc1       0.5134 # average power of dispatch unit per cycle_cc1
avg_issue_power_cc1         28.0909 # average power of issue unit per cycle_cc1
total_power_cycle_cc1  6811875247.1963 # total power per cycle_cc1
avg_total_power_cycle_cc1      43.0453 # average total power per cycle_cc1
avg_total_power_insn_cc1      68.1187 # average total power per insn_cc1
rename_power_cc2       20441992.3873 # total power usage of rename unit_cc2
bpred_power_cc2              0.0000 # total power usage of bpred unit_cc2
window_power_cc2       396897377.7551 # total power usage of instruction window_cc2
lsq_power_cc2          54179015.3313 # total power usage of lsq_cc2
regfile_power_cc2      73128716.1589 # total power usage of arch. regfile_cc2
icache_power_cc2       75333643.9554 # total power usage of icache_cc2
dcache_power_cc2       103102121.1003 # total power usage of dcache_cc2
dcache2_power_cc2      5397625.7681 # total power usage of dcache2_cc2
alu_power_cc2          163689750.8528 # total power usage of alu_cc2
resultbus_power_cc2    203238572.4697 # total power usage of resultbus_cc2
clock_power_cc2        352114891.9624 # total power usage of clock_cc2
avg_rename_power_cc2         0.1292 # avg power usage of rename unit_cc2
avg_bpred_power_cc2          0.0000 # avg power usage of bpred unit_cc2
avg_window_power_cc2         2.5081 # avg power usage of instruction window_cc2
avg_lsq_power_cc2            0.3424 # avg power usage of instruction lsq_cc2
avg_regfile_power_cc2        0.4621 # avg power usage of arch. regfile_cc2
avg_icache_power_cc2         0.4760 # avg power usage of icache_cc2
avg_dcache_power_cc2         0.6515 # avg power usage of dcache_cc2
avg_dcache2_power_cc2        0.0341 # avg power usage of dcache2_cc2
avg_alu_power_cc2            1.0344 # avg power usage of alu_cc2
avg_resultbus_power_cc2       1.2843 # avg power usage of resultbus_cc2
avg_clock_power_cc2          2.2251 # avg power usage of clock_cc2
fetch_stage_power_cc2  75333643.9554 # total power usage of fetch stage_cc2
dispatch_stage_power_cc2 20441992.3873 # total power usage of dispatch stage_cc2
issue_stage_power_cc2  926504463.2772 # total power usage of issue stage_cc2
avg_fetch_power_cc2          0.4760 # average power of fetch unit per cycle_cc2
avg_dispatch_power_cc2       0.1292 # average power of dispatch unit per cycle_cc2
avg_issue_power_cc2          5.8547 # average power of issue unit per cycle_cc2
total_power_cycle_cc2  1447523707.7413 # total power per cycle_cc2
avg_total_power_cycle_cc2       9.1471 # average total power per cycle_cc2
avg_total_power_insn_cc2      14.4752 # average total power per insn_cc2
rename_power_cc3       64076065.1133 # total power usage of rename unit_cc3
bpred_power_cc3        49312726.4316 # total power usage of bpred unit_cc3
window_power_cc3       864968701.2522 # total power usage of instruction window_cc3
lsq_power_cc3          398947204.4645 # total power usage of lsq_cc3
regfile_power_cc3      409097944.8118 # total power usage of arch. regfile_cc3
icache_power_cc3       115791847.3158 # total power usage of icache_cc3
dcache_power_cc3       469074533.7801 # total power usage of dcache_cc3
dcache2_power_cc3      52181262.2386 # total power usage of dcache2_cc3
alu_power_cc3          636678083.9549 # total power usage of alu_cc3
resultbus_power_cc3    568637889.2962 # total power usage of resultbus_cc3
clock_power_cc3        1172470032.2339 # total power usage of clock_cc3
avg_rename_power_cc3         0.4049 # avg power usage of rename unit_cc3
avg_bpred_power_cc3          0.3116 # avg power usage of bpred unit_cc3
avg_window_power_cc3         5.4659 # avg power usage of instruction window_cc3
avg_lsq_power_cc3            2.5210 # avg power usage of instruction lsq_cc3
avg_regfile_power_cc3        2.5852 # avg power usage of arch. regfile_cc3
avg_icache_power_cc3         0.7317 # avg power usage of icache_cc3
avg_dcache_power_cc3         2.9642 # avg power usage of dcache_cc3
avg_dcache2_power_cc3        0.3297 # avg power usage of dcache2_cc3
avg_alu_power_cc3            4.0233 # avg power usage of alu_cc3
avg_resultbus_power_cc3       3.5933 # avg power usage of resultbus_cc3
avg_clock_power_cc3          7.4090 # avg power usage of clock_cc3
fetch_stage_power_cc3  165104573.7474 # total power usage of fetch stage_cc3
dispatch_stage_power_cc3 64076065.1133 # total power usage of dispatch stage_cc3
issue_stage_power_cc3  2990487674.9866 # total power usage of issue stage_cc3
avg_fetch_power_cc3          1.0433 # average power of fetch unit per cycle_cc3
avg_dispatch_power_cc3       0.4049 # average power of dispatch unit per cycle_cc3
avg_issue_power_cc3         18.8974 # average power of issue unit per cycle_cc3
total_power_cycle_cc3  4801236290.8929 # total power per cycle_cc3
avg_total_power_cycle_cc3      30.3398 # average total power per cycle_cc3
avg_total_power_insn_cc3      48.0124 # average total power per insn_cc3
total_rename_access       100000008 # total number accesses of rename unit
total_bpred_access                0 # total number accesses of bpred unit
total_window_access       370544160 # total number accesses of instruction window
total_lsq_access           32601766 # total number accesses of load/store queue
total_regfile_access      153103210 # total number accesses of arch. regfile
total_icache_access       252498748 # total number accesses of icache
total_dcache_access        32024772 # total number accesses of dcache
total_dcache2_access       13915994 # total number accesses of dcache2
total_alu_access           99999872 # total number accesses of alu
total_resultbus_access    110718594 # total number accesses of resultbus
avg_rename_access            0.6319 # avg number accesses of rename unit
avg_bpred_access             0.0000 # avg number accesses of bpred unit
avg_window_access            2.3415 # avg number accesses of instruction window
avg_lsq_access               0.2060 # avg number accesses of lsq
avg_regfile_access           0.9675 # avg number accesses of arch. regfile
avg_icache_access            1.5956 # avg number accesses of icache
avg_dcache_access            0.2024 # avg number accesses of dcache
avg_dcache2_access           0.0879 # avg number accesses of dcache2
avg_alu_access               0.6319 # avg number accesses of alu
avg_resultbus_access         0.6996 # avg number accesses of resultbus
max_rename_access                16 # max number accesses of rename unit
max_bpred_access                  0 # max number accesses of bpred unit
max_window_access                44 # max number accesses of instruction window
max_lsq_access                   10 # max number accesses of load/store queue
max_regfile_access               37 # max number accesses of arch. regfile
max_icache_access                16 # max number accesses of icache
max_dcache_access                11 # max number accesses of dcache
max_dcache2_access                9 # max number accesses of dcache2
max_alu_access                   13 # max number accesses of alu
max_resultbus_access             14 # max number accesses of resultbus
max_cycle_power_cc1        201.8465 # maximum cycle power usage of cc1
max_cycle_power_cc2        123.3790 # maximum cycle power usage of cc2
max_cycle_power_cc3        128.8565 # maximum cycle power usage of cc3
sim_invalid_addrs                 0 # total non-speculative bogus addresses seen (debug var)
ld_text_base           0x0120000000 # program text (code) segment base
ld_text_size                 237568 # program text (code) size in bytes
ld_data_base           0x0140000000 # program initialized data segment base
ld_data_size                  76672 # program init'ed `.data' and uninit'ed `.bss' size in bytes
ld_stack_base          0x011ff9b000 # program stack segment base (highest address in stack)
ld_stack_size                 16384 # program initial stack size
ld_prog_entry          0x012000fb10 # program entry point (initial PC)
ld_environ_base        0x011ff96ea0 # program environment base address address
ld_target_big_endian              0 # target executable endian-ness, non-zero if big endian
mem.page_count                  498 # total number of pages allocated
mem.page_mem                  3984k # total size of memory pages allocated
mem.ptab_misses                 584 # total first level page table misses
mem.ptab_accesses         978887264 # total page table accesses
mem.ptab_miss_rate           0.0000 # first level page table miss rate

