sim-outorder: SimpleScalar/Alpha Tool Set version 3.0 of August, 2003.
Copyright (c) 1994-2003 by Todd M. Austin, Ph.D. and SimpleScalar, LLC.
All Rights Reserved. This version of SimpleScalar is licensed for academic
non-commercial use.  No portion of this work may be used by any commercial
entity, or for any commercial purpose, without the prior written permission
of SimpleScalar, LLC (info@simplescalar.com).


Processor Parameters:
Issue Width: 16
Window Size: 64
Number of Virtual Registers: 32
Number of Physical Registers: 64
Datapath Width: 64
Total Power Consumption: 259.498
Branch Predictor Power Consumption: 3.11615  (1.21%)
 branch target buffer power (W): 2.49493
 local predict power (W): 0.354432
 global predict power (W): 0.0996078
 chooser power (W): 0.0702439
 RAS power (W): 0.0969383
Rename Logic Power Consumption: 3.27072  (1.27%)
 Instruction Decode Power (W): 0.0639661
 RAT decode_power (W): 0.454058
 RAT wordline_power (W): 0.227603
 RAT bitline_power (W): 2.30694
 DCL Comparators (W): 0.218151
Instruction Window Power Consumption: 43.216  (16.8%)
 tagdrive (W): 2.9395
 tagmatch (W): 0.989695
 Selection Logic (W): 0.225484
 decode_power (W): 0.976583
 wordline_power (W): 1.0557
 bitline_power (W): 37.0291
Load/Store Queue Power Consumption: 23.479  (9.12%)
 tagdrive (W): 11.1732
 tagmatch (W): 3.86294
 decode_power (W): 0.325528
 wordline_power (W): 0.139808
 bitline_power (W): 7.97753
Arch. Register File Power Consumption: 25.1387  (9.76%)
 decode_power (W): 0.454058
 wordline_power (W): 1.0557
 bitline_power (W): 23.629
Result Bus Power Consumption: 31.3281  (12.2%)
Total Clock Power: 62.8357  (24.4%)
Int ALU Power: 4.66013  (1.81%)
FP ALU Power: 28.5621  (11.1%)
Instruction Cache Power Consumption: 2.76773  (1.07%)
 decode_power (W): 0.151353
 wordline_power (W): 0.180479
 bitline_power (W): 1.42251
 senseamp_power (W): 0.768
 tagarray_power (W): 0.245382
Itlb_power (W): 0.264936 (0.103%)
Data Cache Power Consumption: 22.1418  (8.6%)
 decode_power (W): 1.21082
 wordline_power (W): 1.44383
 bitline_power (W): 11.3801
 senseamp_power (W): 6.144
 tagarray_power (W): 1.96306
Dtlb_power (W): 3.61376 (1.4%)
Level 2 Cache Power Consumption: 3.10298 (1.21%)
 decode_power (W): 0.19487
 wordline_power (W): 0.0430878
 bitline_power (W): 1.77274
 senseamp_power (W): 0.192
 tagarray_power (W): 0.900275
sim: loading EIO file: ../benchmarks/252.eon.cook-ref.eio.gz
sim: command line: ./sim-outorder -config ../configs/current.config ../benchmarks/252.eon.cook-ref.eio.gz 

sim: simulation started @ Tue Nov 24 13:37:49 2015, options follow:

sim-outorder: This simulator implements a very detailed out-of-order issue
superscalar processor with a two-level memory system and speculative
execution support.  This simulator is a performance simulator, tracking the
latency of all pipeline operations.

# -config                     # load configuration from a file
# -dumpconfig                 # dump configuration to a file
# -h                    false # print help message    
# -v                    false # verbose operation     
# -d                    false # enable debug message  
# -i                    false # start in Dlite debugger
-seed                       1 # random number generator seed (0 for timer seed)
# -q                    false # initialize and terminate immediately
# -chkpt               <null> # restore EIO trace execution from <fname>
# -redir:sim     ../results/29_23_memport/252.eon.cook-ref.eio.gz.out # redirect simulator output to file (non-interactive only)
# -redir:prog       /dev/null # redirect simulated program output to file
-nice                       0 # simulator scheduling priority
-freq            600000000.0000 # frequency             
-max:inst           100000000 # maximum number of inst's to execute
-fastfwd                    0 # number of insts skipped before timing starts
# -ptrace              <null> # generate pipetrace, i.e., <fname|stdout|stderr> <range>
-fetch:ifqsize             16 # instruction fetch queue size (in insts)
-fetch:mplat               15 # extra branch mis-prediction latency
-fetch:speed                1 # speed of front-end of machine relative to execution core
-bpred                perfect # branch predictor type {nottaken|taken|perfect|bimod|2lev|comb}
-bpred:bimod     2048 # bimodal predictor config (<table size>)
-bpred:2lev      1 8192 8 0 # 2-level predictor config (<l1size> <l2size> <hist_size> <xor>)
-bpred:comb      1024 # combining predictor config (<meta_table_size>)
-bpred:ras                  8 # return address stack size (0 for no return stack)
-bpred:btb       512 4 # BTB config (<num_sets> <associativity>)
# -bpred:spec_update       <null> # speculative predictors update in {ID|WB} (default non-spec)
-decode:width              16 # instruction decode B/W (insts/cycle)
-issue:width               16 # instruction issue B/W (insts/cycle)
-issue:inorder          false # run pipeline with in-order issue
-issue:wrongpath         true # issue instructions down wrong execution paths
-commit:width              16 # instruction commit B/W (insts/cycle)
-ruu:size                  64 # register update unit (RUU) size
-lsq:size                  64 # load/store queue (LSQ) size
-cache:dl1       dl1:32:64:8:f # l1 data cache config, i.e., {<config>|none}
-cache:dl1lat               1 # l1 data cache hit latency (in cycles)
-cache:dl2       dl2:256:64:8:f # l2 data cache config, i.e., {<config>|none}
-cache:dl2lat               2 # l2 data cache hit latency (in cycles)
-cache:il1       il1:32:64:8:f # l1 inst cache config, i.e., {<config>|dl1|dl2|none}
-cache:il1lat               1 # l1 instruction cache hit latency (in cycles)
-cache:il2                dl2 # l2 instruction cache config, i.e., {<config>|dl2|none}
-cache:il2lat               2 # l2 instruction cache hit latency (in cycles)
-cache:flush            false # flush caches on system calls
-cache:icompress        false # convert 64-bit inst addresses to 32-bit inst equivalents
-mem:lat         103 1 # memory access latency (<first_chunk> <inter_chunk>)
-mem:width                  8 # memory access bus width (in bytes)
-tlb:itlb        itlb:16:4096:4:l # instruction TLB config, i.e., {<config>|none}
-tlb:dtlb        dtlb:32:4096:4:l # data TLB config, i.e., {<config>|none}
-tlb:lat                   30 # inst/data TLB miss latency (in cycles)
-res:ialu                   4 # total number of integer ALU's available
-res:imult                  2 # total number of integer multiplier/dividers available
-res:memport                8 # total number of memory system ports available (to CPU)
-res:fpalu                  8 # total number of floating point ALU's available
-res:fpmult                 2 # total number of floating point multiplier/dividers available
# -pcstat              <null> # profile stat(s) against text addr's (mult uses ok)
-bugcompat              false # operate in backward-compatible bugs mode (for testing only)

  Pipetrace range arguments are formatted as follows:

    {{@|#}<start>}:{{@|#|+}<end>}

  Both ends of the range are optional, if neither are specified, the entire
  execution is traced.  Ranges that start with a `@' designate an address
  range to be traced, those that start with an `#' designate a cycle count
  range.  All other range values represent an instruction count range.  The
  second argument, if specified with a `+', indicates a value relative
  to the first argument, e.g., 1000:+100 == 1000:1100.  Program symbols may
  be used in all contexts.

    Examples:   -ptrace FOO.trc #0:#1000
                -ptrace BAR.trc @2000:
                -ptrace BLAH.trc :1500
                -ptrace UXXE.trc :
                -ptrace FOOBAR.trc @main:+278

  Branch predictor configuration examples for 2-level predictor:
    Configurations:   N, M, W, X
      N   # entries in first level (# of shift register(s))
      W   width of shift register(s)
      M   # entries in 2nd level (# of counters, or other FSM)
      X   (yes-1/no-0) xor history and address for 2nd level index
    Sample predictors:
      GAg     : 1, W, 2^W, 0
      GAp     : 1, W, M (M > 2^W), 0
      PAg     : N, W, 2^W, 0
      PAp     : N, W, M (M == 2^(N+W)), 0
      gshare  : 1, W, 2^W, 1
  Predictor `comb' combines a bimodal and a 2-level predictor.

  The cache config parameter <config> has the following format:

    <name>:<nsets>:<bsize>:<assoc>:<repl>

    <name>   - name of the cache being defined
    <nsets>  - number of sets in the cache
    <bsize>  - block size of the cache
    <assoc>  - associativity of the cache
    <repl>   - block replacement strategy, 'l'-LRU, 'f'-FIFO, 'r'-random

    Examples:   -cache:dl1 dl1:4096:32:1:l
                -dtlb dtlb:128:4096:32:r

  Cache levels can be unified by pointing a level of the instruction cache
  hierarchy at the data cache hiearchy using the "dl1" and "dl2" cache
  configuration arguments.  Most sensible combinations are supported, e.g.,

    A unified l2 cache (il2 is pointed at dl2):
      -cache:il1 il1:128:64:1:l -cache:il2 dl2
      -cache:dl1 dl1:256:32:1:l -cache:dl2 ul2:1024:64:2:l

    Or, a fully unified cache hierarchy (il1 pointed at dl1):
      -cache:il1 dl1
      -cache:dl1 ul1:256:32:1:l -cache:dl2 ul2:1024:64:2:l



sim: ** starting performance simulation **

sim: ** simulation statistics **
sim_num_insn              100000000 # total number of instructions committed
sim_num_refs               45959960 # total number of loads and stores committed
sim_num_loads              29429717 # total number of loads committed
sim_num_stores         16530243.0000 # total number of stores committed
sim_num_branches           11225005 # total number of branches committed
sim_elapsed_time                125 # total simulation time in seconds
sim_inst_rate           800000.0000 # simulation speed (in insts/sec)
sim_total_insn            100000000 # total number of instructions executed
sim_total_refs             45959960 # total number of loads and stores executed
sim_total_loads            29429717 # total number of loads executed
sim_total_stores       16530243.0000 # total number of stores executed
sim_total_branches         11225005 # total number of branches executed
sim_cycle                  27599154 # total simulation time in cycles
sim_IPC                      3.6233 # instructions per cycle
sim_CPI                      0.2760 # cycles per instruction
sim_exec_BW                  3.6233 # total instructions (mis-spec + committed) per cycle
sim_IPB                      8.9087 # instruction per branch
IFQ_count                 408279729 # cumulative IFQ occupancy
IFQ_fcount                 24861134 # cumulative IFQ full count
ifq_occupancy               14.7932 # avg IFQ occupancy (insn's)
ifq_rate                     3.6233 # avg IFQ dispatch rate (insn/cycle)
ifq_latency                  4.0828 # avg IFQ occupant latency (cycle's)
ifq_full                     0.9008 # fraction of time (cycle's) IFQ was full
RUU_count                1627683719 # cumulative RUU occupancy
RUU_fcount                 18364510 # cumulative RUU full count
ruu_occupancy               58.9759 # avg RUU occupancy (insn's)
ruu_rate                     3.6233 # avg RUU dispatch rate (insn/cycle)
ruu_latency                 16.2768 # avg RUU occupant latency (cycle's)
ruu_full                     0.6654 # fraction of time (cycle's) RUU was full
LSQ_count                 711457345 # cumulative LSQ occupancy
LSQ_fcount                        0 # cumulative LSQ full count
lsq_occupancy               25.7782 # avg LSQ occupancy (insn's)
lsq_rate                     3.6233 # avg LSQ dispatch rate (insn/cycle)
lsq_latency                  7.1146 # avg LSQ occupant latency (cycle's)
lsq_full                     0.0000 # fraction of time (cycle's) LSQ was full
sim_slip                 2485099657 # total number of slip cycles
avg_sim_slip                24.8510 # the average slip between issue and retirement
il1.accesses              172937472 # total number of accesses
il1.hits                  171778794 # total number of hits
il1.misses                  1158678 # total number of misses
il1.replacements            1158422 # total number of replacements
il1.writebacks                    0 # total number of writebacks
il1.invalidations                 0 # total number of invalidations
il1.miss_rate                0.0067 # miss rate (i.e., misses/ref)
il1.repl_rate                0.0067 # replacement rate (i.e., repls/ref)
il1.wb_rate                  0.0000 # writeback rate (i.e., wrbks/ref)
il1.inv_rate                 0.0000 # invalidation rate (i.e., invs/ref)
dl1.accesses               42903362 # total number of accesses
dl1.hits                   42643167 # total number of hits
dl1.misses                   260195 # total number of misses
dl1.replacements             259939 # total number of replacements
dl1.writebacks                62018 # total number of writebacks
dl1.invalidations                 0 # total number of invalidations
dl1.miss_rate                0.0061 # miss rate (i.e., misses/ref)
dl1.repl_rate                0.0061 # replacement rate (i.e., repls/ref)
dl1.wb_rate                  0.0014 # writeback rate (i.e., wrbks/ref)
dl1.inv_rate                 0.0000 # invalidation rate (i.e., invs/ref)
dl2.accesses                1480891 # total number of accesses
dl2.hits                    1471755 # total number of hits
dl2.misses                     9136 # total number of misses
dl2.replacements               7088 # total number of replacements
dl2.writebacks                 2992 # total number of writebacks
dl2.invalidations                 0 # total number of invalidations
dl2.miss_rate                0.0062 # miss rate (i.e., misses/ref)
dl2.repl_rate                0.0048 # replacement rate (i.e., repls/ref)
dl2.wb_rate                  0.0020 # writeback rate (i.e., wrbks/ref)
dl2.inv_rate                 0.0000 # invalidation rate (i.e., invs/ref)
itlb.accesses             172937472 # total number of accesses
itlb.hits                 172937210 # total number of hits
itlb.misses                     262 # total number of misses
itlb.replacements               198 # total number of replacements
itlb.writebacks                   0 # total number of writebacks
itlb.invalidations                0 # total number of invalidations
itlb.miss_rate               0.0000 # miss rate (i.e., misses/ref)
itlb.repl_rate               0.0000 # replacement rate (i.e., repls/ref)
itlb.wb_rate                 0.0000 # writeback rate (i.e., wrbks/ref)
itlb.inv_rate                0.0000 # invalidation rate (i.e., invs/ref)
dtlb.accesses              45959960 # total number of accesses
dtlb.hits                  45959843 # total number of hits
dtlb.misses                     117 # total number of misses
dtlb.replacements                 6 # total number of replacements
dtlb.writebacks                   0 # total number of writebacks
dtlb.invalidations                0 # total number of invalidations
dtlb.miss_rate               0.0000 # miss rate (i.e., misses/ref)
dtlb.repl_rate               0.0000 # replacement rate (i.e., repls/ref)
dtlb.wb_rate                 0.0000 # writeback rate (i.e., wrbks/ref)
dtlb.inv_rate                0.0000 # invalidation rate (i.e., invs/ref)
rename_power           90269064.1278 # total power usage of rename unit
bpred_power            86003112.9377 # total power usage of bpred unit
window_power           1192725856.8207 # total power usage of instruction window
lsq_power              647999756.3357 # total power usage of load/store queue
regfile_power          693808030.7336 # total power usage of arch. regfile
icache_power           83698966.0987 # total power usage of icache
dcache_power           710832556.2373 # total power usage of dcache
dcache2_power          85639533.7497 # total power usage of dcache2
alu_power              916905175.2303 # total power usage of alu
falu_power             788289517.9861 # total power usage of falu
resultbus_power        864629501.9344 # total power usage of resultbus
clock_power            1734212964.3628 # total power usage of clock
avg_rename_power             3.2707 # avg power usage of rename unit
avg_bpred_power              3.1162 # avg power usage of bpred unit
avg_window_power            43.2160 # avg power usage of instruction window
avg_lsq_power               23.4790 # avg power usage of lsq
avg_regfile_power           25.1387 # avg power usage of arch. regfile
avg_icache_power             3.0327 # avg power usage of icache
avg_dcache_power            25.7556 # avg power usage of dcache
avg_dcache2_power            3.1030 # avg power usage of dcache2
avg_alu_power               33.2222 # avg power usage of alu
avg_falu_power              28.5621 # avg power usage of falu
avg_resultbus_power         31.3281 # avg power usage of resultbus
avg_clock_power             62.8357 # avg power usage of clock
fetch_stage_power      169702079.0364 # total power usage of fetch stage
dispatch_stage_power   90269064.1278 # total power usage of dispatch stage
issue_stage_power      4418732380.3082 # total power usage of issue stage
avg_fetch_power              6.1488 # average power of fetch unit per cycle
avg_dispatch_power           3.2707 # average power of dispatch unit per cycle
avg_issue_power            160.1039 # average power of issue unit per cycle
total_power            7106724518.5687 # total power per cycle
avg_total_power_cycle      257.4979 # average total power per cycle
avg_total_power_cycle_nofp_nod2     225.8328 # average total power per cycle
avg_total_power_insn        71.0672 # average total power per insn
avg_total_power_insn_nofp_nod2      62.3280 # average total power per insn
rename_power_cc1       59328322.0750 # total power usage of rename unit_cc1
bpred_power_cc1              0.0000 # total power usage of bpred unit_cc1
window_power_cc1       1003961229.4883 # total power usage of instruction window_cc1
lsq_power_cc1          300590405.0681 # total power usage of lsq_cc1
regfile_power_cc1      408891568.5182 # total power usage of arch. regfile_cc1
icache_power_cc1       55839441.9640 # total power usage of icache_cc1
dcache_power_cc1       438700530.2012 # total power usage of dcache_cc1
dcache2_power_cc1      4298526.1835 # total power usage of dcache2_cc1
alu_power_cc1          361897132.5122 # total power usage of alu_cc1
resultbus_power_cc1    762600544.7942 # total power usage of resultbus_cc1
clock_power_cc1        1037572646.9561 # total power usage of clock_cc1
avg_rename_power_cc1         2.1496 # avg power usage of rename unit_cc1
avg_bpred_power_cc1          0.0000 # avg power usage of bpred unit_cc1
avg_window_power_cc1        36.3765 # avg power usage of instruction window_cc1
avg_lsq_power_cc1           10.8913 # avg power usage of lsq_cc1
avg_regfile_power_cc1       14.8154 # avg power usage of arch. regfile_cc1
avg_icache_power_cc1         2.0232 # avg power usage of icache_cc1
avg_dcache_power_cc1        15.8954 # avg power usage of dcache_cc1
avg_dcache2_power_cc1        0.1557 # avg power usage of dcache2_cc1
avg_alu_power_cc1           13.1126 # avg power usage of alu_cc1
avg_resultbus_power_cc1      27.6313 # avg power usage of resultbus_cc1
avg_clock_power_cc1         37.5944 # avg power usage of clock_cc1
fetch_stage_power_cc1  55839441.9640 # total power usage of fetch stage_cc1
dispatch_stage_power_cc1 59328322.0750 # total power usage of dispatch stage_cc1
issue_stage_power_cc1  2872048368.2475 # total power usage of issue stage_cc1
avg_fetch_power_cc1          2.0232 # average power of fetch unit per cycle_cc1
avg_dispatch_power_cc1       2.1496 # average power of dispatch unit per cycle_cc1
avg_issue_power_cc1        104.0629 # average power of issue unit per cycle_cc1
total_power_cycle_cc1  4433680347.7607 # total power per cycle_cc1
avg_total_power_cycle_cc1     160.6455 # average total power per cycle_cc1
avg_total_power_insn_cc1      44.3368 # average total power per insn_cc1
rename_power_cc2       20441990.7545 # total power usage of rename unit_cc2
bpred_power_cc2              0.0000 # total power usage of bpred unit_cc2
window_power_cc2       378105871.9558 # total power usage of instruction window_cc2
lsq_power_cc2          71720537.5932 # total power usage of lsq_cc2
regfile_power_cc2      55359668.2733 # total power usage of arch. regfile_cc2
icache_power_cc2       55839441.9640 # total power usage of icache_cc2
dcache_power_cc2       138125187.1103 # total power usage of dcache_cc2
dcache2_power_cc2       574396.2969 # total power usage of dcache2_cc2
alu_power_cc2          150684704.1215 # total power usage of alu_cc2
resultbus_power_cc2    216980292.0521 # total power usage of resultbus_cc2
clock_power_cc2        327412606.2843 # total power usage of clock_cc2
avg_rename_power_cc2         0.7407 # avg power usage of rename unit_cc2
avg_bpred_power_cc2          0.0000 # avg power usage of bpred unit_cc2
avg_window_power_cc2        13.6999 # avg power usage of instruction window_cc2
avg_lsq_power_cc2            2.5986 # avg power usage of instruction lsq_cc2
avg_regfile_power_cc2        2.0058 # avg power usage of arch. regfile_cc2
avg_icache_power_cc2         2.0232 # avg power usage of icache_cc2
avg_dcache_power_cc2         5.0047 # avg power usage of dcache_cc2
avg_dcache2_power_cc2        0.0208 # avg power usage of dcache2_cc2
avg_alu_power_cc2            5.4598 # avg power usage of alu_cc2
avg_resultbus_power_cc2       7.8618 # avg power usage of resultbus_cc2
avg_clock_power_cc2         11.8631 # avg power usage of clock_cc2
fetch_stage_power_cc2  55839441.9640 # total power usage of fetch stage_cc2
dispatch_stage_power_cc2 20441990.7545 # total power usage of dispatch stage_cc2
issue_stage_power_cc2  956190989.1298 # total power usage of issue stage_cc2
avg_fetch_power_cc2          2.0232 # average power of fetch unit per cycle_cc2
avg_dispatch_power_cc2       0.7407 # average power of dispatch unit per cycle_cc2
avg_issue_power_cc2         34.6457 # average power of issue unit per cycle_cc2
total_power_cycle_cc2  1415244696.4059 # total power per cycle_cc2
avg_total_power_cycle_cc2      51.2786 # average total power per cycle_cc2
avg_total_power_insn_cc2      14.1524 # average total power per insn_cc2
rename_power_cc3       23536064.9687 # total power usage of rename unit_cc3
bpred_power_cc3        8600311.2878 # total power usage of bpred unit_cc3
window_power_cc3       382435377.2573 # total power usage of instruction window_cc3
lsq_power_cc3          104662467.5208 # total power usage of lsq_cc3
regfile_power_cc3      78229372.9615 # total power usage of arch. regfile_cc3
icache_power_cc3       58625394.3877 # total power usage of icache_cc3
dcache_power_cc3       165427008.6450 # total power usage of dcache_cc3
dcache2_power_cc3      8708498.3394 # total power usage of dcache2_cc3
alu_power_cc3          206185508.3232 # total power usage of alu_cc3
resultbus_power_cc3    222099184.0428 # total power usage of resultbus_cc3
clock_power_cc3        388915432.2061 # total power usage of clock_cc3
avg_rename_power_cc3         0.8528 # avg power usage of rename unit_cc3
avg_bpred_power_cc3          0.3116 # avg power usage of bpred unit_cc3
avg_window_power_cc3        13.8568 # avg power usage of instruction window_cc3
avg_lsq_power_cc3            3.7922 # avg power usage of instruction lsq_cc3
avg_regfile_power_cc3        2.8345 # avg power usage of arch. regfile_cc3
avg_icache_power_cc3         2.1242 # avg power usage of icache_cc3
avg_dcache_power_cc3         5.9939 # avg power usage of dcache_cc3
avg_dcache2_power_cc3        0.3155 # avg power usage of dcache2_cc3
avg_alu_power_cc3            7.4707 # avg power usage of alu_cc3
avg_resultbus_power_cc3       8.0473 # avg power usage of resultbus_cc3
avg_clock_power_cc3         14.0916 # avg power usage of clock_cc3
fetch_stage_power_cc3  67225705.6754 # total power usage of fetch stage_cc3
dispatch_stage_power_cc3 23536064.9687 # total power usage of dispatch stage_cc3
issue_stage_power_cc3  1089518044.1285 # total power usage of issue stage_cc3
avg_fetch_power_cc3          2.4358 # average power of fetch unit per cycle_cc3
avg_dispatch_power_cc3       0.8528 # average power of dispatch unit per cycle_cc3
avg_issue_power_cc3         39.4765 # average power of issue unit per cycle_cc3
total_power_cycle_cc3  1647424619.9403 # total power per cycle_cc3
avg_total_power_cycle_cc3      59.6911 # average total power per cycle_cc3
avg_total_power_insn_cc3      16.4742 # average total power per insn_cc3
total_rename_access       100000000 # total number accesses of rename unit
total_bpred_access                0 # total number accesses of bpred unit
total_window_access       365820749 # total number accesses of instruction window
total_lsq_access           49016558 # total number accesses of load/store queue
total_regfile_access      120783125 # total number accesses of arch. regfile
total_icache_access       172937472 # total number accesses of icache
total_dcache_access        42903362 # total number accesses of dcache
total_dcache2_access        1480891 # total number accesses of dcache2
total_alu_access           99880630 # total number accesses of alu
total_resultbus_access    118204692 # total number accesses of resultbus
avg_rename_access            3.6233 # avg number accesses of rename unit
avg_bpred_access             0.0000 # avg number accesses of bpred unit
avg_window_access           13.2548 # avg number accesses of instruction window
avg_lsq_access               1.7760 # avg number accesses of lsq
avg_regfile_access           4.3763 # avg number accesses of arch. regfile
avg_icache_access            6.2660 # avg number accesses of icache
avg_dcache_access            1.5545 # avg number accesses of dcache
avg_dcache2_access           0.0537 # avg number accesses of dcache2
avg_alu_access               3.6190 # avg number accesses of alu
avg_resultbus_access         4.2829 # avg number accesses of resultbus
max_rename_access                16 # max number accesses of rename unit
max_bpred_access                  0 # max number accesses of bpred unit
max_window_access                48 # max number accesses of instruction window
max_lsq_access                   21 # max number accesses of load/store queue
max_regfile_access               40 # max number accesses of arch. regfile
max_icache_access                16 # max number accesses of icache
max_dcache_access                13 # max number accesses of dcache
max_dcache2_access                9 # max number accesses of dcache2
max_alu_access                   12 # max number accesses of alu
max_resultbus_access             15 # max number accesses of resultbus
max_cycle_power_cc1        221.9067 # maximum cycle power usage of cc1
max_cycle_power_cc2        141.1987 # maximum cycle power usage of cc2
max_cycle_power_cc3        144.2907 # maximum cycle power usage of cc3
sim_invalid_addrs                 0 # total non-speculative bogus addresses seen (debug var)
ld_text_base           0x0120000000 # program text (code) segment base
ld_text_size                 794624 # program text (code) size in bytes
ld_data_base           0x0140000000 # program initialized data segment base
ld_data_size                 216592 # program init'ed `.data' and uninit'ed `.bss' size in bytes
ld_stack_base          0x011ff9b000 # program stack segment base (highest address in stack)
ld_stack_size                 16384 # program initial stack size
ld_prog_entry          0x012002d410 # program entry point (initial PC)
ld_environ_base        0x011ff97000 # program environment base address address
ld_target_big_endian              0 # target executable endian-ness, non-zero if big endian
mem.page_count                  148 # total number of pages allocated
mem.page_mem                  1184k # total size of memory pages allocated
mem.ptab_misses              473798 # total first level page table misses
mem.ptab_accesses         985254784 # total page table accesses
mem.ptab_miss_rate           0.0005 # first level page table miss rate

