sim-outorder: SimpleScalar/Alpha Tool Set version 3.0 of August, 2003.
Copyright (c) 1994-2003 by Todd M. Austin, Ph.D. and SimpleScalar, LLC.
All Rights Reserved. This version of SimpleScalar is licensed for academic
non-commercial use.  No portion of this work may be used by any commercial
entity, or for any commercial purpose, without the prior written permission
of SimpleScalar, LLC (info@simplescalar.com).


Processor Parameters:
Issue Width: 16
Window Size: 64
Number of Virtual Registers: 32
Number of Physical Registers: 64
Datapath Width: 64
Total Power Consumption: 259.498
Branch Predictor Power Consumption: 3.11615  (1.21%)
 branch target buffer power (W): 2.49493
 local predict power (W): 0.354432
 global predict power (W): 0.0996078
 chooser power (W): 0.0702439
 RAS power (W): 0.0969383
Rename Logic Power Consumption: 3.27072  (1.27%)
 Instruction Decode Power (W): 0.0639661
 RAT decode_power (W): 0.454058
 RAT wordline_power (W): 0.227603
 RAT bitline_power (W): 2.30694
 DCL Comparators (W): 0.218151
Instruction Window Power Consumption: 43.216  (16.8%)
 tagdrive (W): 2.9395
 tagmatch (W): 0.989695
 Selection Logic (W): 0.225484
 decode_power (W): 0.976583
 wordline_power (W): 1.0557
 bitline_power (W): 37.0291
Load/Store Queue Power Consumption: 23.479  (9.12%)
 tagdrive (W): 11.1732
 tagmatch (W): 3.86294
 decode_power (W): 0.325528
 wordline_power (W): 0.139808
 bitline_power (W): 7.97753
Arch. Register File Power Consumption: 25.1387  (9.76%)
 decode_power (W): 0.454058
 wordline_power (W): 1.0557
 bitline_power (W): 23.629
Result Bus Power Consumption: 31.3281  (12.2%)
Total Clock Power: 62.8357  (24.4%)
Int ALU Power: 4.66013  (1.81%)
FP ALU Power: 28.5621  (11.1%)
Instruction Cache Power Consumption: 2.76773  (1.07%)
 decode_power (W): 0.151353
 wordline_power (W): 0.180479
 bitline_power (W): 1.42251
 senseamp_power (W): 0.768
 tagarray_power (W): 0.245382
Itlb_power (W): 0.264936 (0.103%)
Data Cache Power Consumption: 22.1418  (8.6%)
 decode_power (W): 1.21082
 wordline_power (W): 1.44383
 bitline_power (W): 11.3801
 senseamp_power (W): 6.144
 tagarray_power (W): 1.96306
Dtlb_power (W): 3.61376 (1.4%)
Level 2 Cache Power Consumption: 3.10298 (1.21%)
 decode_power (W): 0.19487
 wordline_power (W): 0.0430878
 bitline_power (W): 1.77274
 senseamp_power (W): 0.192
 tagarray_power (W): 0.900275
sim: loading EIO file: ../benchmarks/253.perlbmk.makerand-ref.eio.gz
sim: command line: ./sim-outorder -config ../configs/current.config ../benchmarks/253.perlbmk.makerand-ref.eio.gz 

sim: simulation started @ Tue Nov 24 13:37:50 2015, options follow:

sim-outorder: This simulator implements a very detailed out-of-order issue
superscalar processor with a two-level memory system and speculative
execution support.  This simulator is a performance simulator, tracking the
latency of all pipeline operations.

# -config                     # load configuration from a file
# -dumpconfig                 # dump configuration to a file
# -h                    false # print help message    
# -v                    false # verbose operation     
# -d                    false # enable debug message  
# -i                    false # start in Dlite debugger
-seed                       1 # random number generator seed (0 for timer seed)
# -q                    false # initialize and terminate immediately
# -chkpt               <null> # restore EIO trace execution from <fname>
# -redir:sim     ../results/29_23_memport/253.perlbmk.makerand-ref.eio.gz.out # redirect simulator output to file (non-interactive only)
# -redir:prog       /dev/null # redirect simulated program output to file
-nice                       0 # simulator scheduling priority
-freq            600000000.0000 # frequency             
-max:inst           100000000 # maximum number of inst's to execute
-fastfwd                    0 # number of insts skipped before timing starts
# -ptrace              <null> # generate pipetrace, i.e., <fname|stdout|stderr> <range>
-fetch:ifqsize             16 # instruction fetch queue size (in insts)
-fetch:mplat               15 # extra branch mis-prediction latency
-fetch:speed                1 # speed of front-end of machine relative to execution core
-bpred                perfect # branch predictor type {nottaken|taken|perfect|bimod|2lev|comb}
-bpred:bimod     2048 # bimodal predictor config (<table size>)
-bpred:2lev      1 8192 8 0 # 2-level predictor config (<l1size> <l2size> <hist_size> <xor>)
-bpred:comb      1024 # combining predictor config (<meta_table_size>)
-bpred:ras                  8 # return address stack size (0 for no return stack)
-bpred:btb       512 4 # BTB config (<num_sets> <associativity>)
# -bpred:spec_update       <null> # speculative predictors update in {ID|WB} (default non-spec)
-decode:width              16 # instruction decode B/W (insts/cycle)
-issue:width               16 # instruction issue B/W (insts/cycle)
-issue:inorder          false # run pipeline with in-order issue
-issue:wrongpath         true # issue instructions down wrong execution paths
-commit:width              16 # instruction commit B/W (insts/cycle)
-ruu:size                  64 # register update unit (RUU) size
-lsq:size                  64 # load/store queue (LSQ) size
-cache:dl1       dl1:32:64:8:f # l1 data cache config, i.e., {<config>|none}
-cache:dl1lat               1 # l1 data cache hit latency (in cycles)
-cache:dl2       dl2:256:64:8:f # l2 data cache config, i.e., {<config>|none}
-cache:dl2lat               2 # l2 data cache hit latency (in cycles)
-cache:il1       il1:32:64:8:f # l1 inst cache config, i.e., {<config>|dl1|dl2|none}
-cache:il1lat               1 # l1 instruction cache hit latency (in cycles)
-cache:il2                dl2 # l2 instruction cache config, i.e., {<config>|dl2|none}
-cache:il2lat               2 # l2 instruction cache hit latency (in cycles)
-cache:flush            false # flush caches on system calls
-cache:icompress        false # convert 64-bit inst addresses to 32-bit inst equivalents
-mem:lat         103 1 # memory access latency (<first_chunk> <inter_chunk>)
-mem:width                  8 # memory access bus width (in bytes)
-tlb:itlb        itlb:16:4096:4:l # instruction TLB config, i.e., {<config>|none}
-tlb:dtlb        dtlb:32:4096:4:l # data TLB config, i.e., {<config>|none}
-tlb:lat                   30 # inst/data TLB miss latency (in cycles)
-res:ialu                   4 # total number of integer ALU's available
-res:imult                  2 # total number of integer multiplier/dividers available
-res:memport                8 # total number of memory system ports available (to CPU)
-res:fpalu                  8 # total number of floating point ALU's available
-res:fpmult                 2 # total number of floating point multiplier/dividers available
# -pcstat              <null> # profile stat(s) against text addr's (mult uses ok)
-bugcompat              false # operate in backward-compatible bugs mode (for testing only)

  Pipetrace range arguments are formatted as follows:

    {{@|#}<start>}:{{@|#|+}<end>}

  Both ends of the range are optional, if neither are specified, the entire
  execution is traced.  Ranges that start with a `@' designate an address
  range to be traced, those that start with an `#' designate a cycle count
  range.  All other range values represent an instruction count range.  The
  second argument, if specified with a `+', indicates a value relative
  to the first argument, e.g., 1000:+100 == 1000:1100.  Program symbols may
  be used in all contexts.

    Examples:   -ptrace FOO.trc #0:#1000
                -ptrace BAR.trc @2000:
                -ptrace BLAH.trc :1500
                -ptrace UXXE.trc :
                -ptrace FOOBAR.trc @main:+278

  Branch predictor configuration examples for 2-level predictor:
    Configurations:   N, M, W, X
      N   # entries in first level (# of shift register(s))
      W   width of shift register(s)
      M   # entries in 2nd level (# of counters, or other FSM)
      X   (yes-1/no-0) xor history and address for 2nd level index
    Sample predictors:
      GAg     : 1, W, 2^W, 0
      GAp     : 1, W, M (M > 2^W), 0
      PAg     : N, W, 2^W, 0
      PAp     : N, W, M (M == 2^(N+W)), 0
      gshare  : 1, W, 2^W, 1
  Predictor `comb' combines a bimodal and a 2-level predictor.

  The cache config parameter <config> has the following format:

    <name>:<nsets>:<bsize>:<assoc>:<repl>

    <name>   - name of the cache being defined
    <nsets>  - number of sets in the cache
    <bsize>  - block size of the cache
    <assoc>  - associativity of the cache
    <repl>   - block replacement strategy, 'l'-LRU, 'f'-FIFO, 'r'-random

    Examples:   -cache:dl1 dl1:4096:32:1:l
                -dtlb dtlb:128:4096:32:r

  Cache levels can be unified by pointing a level of the instruction cache
  hierarchy at the data cache hiearchy using the "dl1" and "dl2" cache
  configuration arguments.  Most sensible combinations are supported, e.g.,

    A unified l2 cache (il2 is pointed at dl2):
      -cache:il1 il1:128:64:1:l -cache:il2 dl2
      -cache:dl1 dl1:256:32:1:l -cache:dl2 ul2:1024:64:2:l

    Or, a fully unified cache hierarchy (il1 pointed at dl1):
      -cache:il1 dl1
      -cache:dl1 ul1:256:32:1:l -cache:dl2 ul2:1024:64:2:l



sim: ** starting performance simulation **

sim: ** simulation statistics **
sim_num_insn              100000007 # total number of instructions committed
sim_num_refs               40095830 # total number of loads and stores committed
sim_num_loads              29946759 # total number of loads committed
sim_num_stores         10149071.0000 # total number of stores committed
sim_num_branches           13420684 # total number of branches committed
sim_elapsed_time                140 # total simulation time in seconds
sim_inst_rate           714285.7643 # simulation speed (in insts/sec)
sim_total_insn            100000007 # total number of instructions executed
sim_total_refs             40095830 # total number of loads and stores executed
sim_total_loads            29946759 # total number of loads executed
sim_total_stores       10149071.0000 # total number of stores executed
sim_total_branches         13420684 # total number of branches executed
sim_cycle                  35087028 # total simulation time in cycles
sim_IPC                      2.8501 # instructions per cycle
sim_CPI                      0.3509 # cycles per instruction
sim_exec_BW                  2.8501 # total instructions (mis-spec + committed) per cycle
sim_IPB                      7.4512 # instruction per branch
IFQ_count                 541718261 # cumulative IFQ occupancy
IFQ_fcount                 33847204 # cumulative IFQ full count
ifq_occupancy               15.4393 # avg IFQ occupancy (insn's)
ifq_rate                     2.8501 # avg IFQ dispatch rate (insn/cycle)
ifq_latency                  5.4172 # avg IFQ occupant latency (cycle's)
ifq_full                     0.9647 # fraction of time (cycle's) IFQ was full
RUU_count                2092979293 # cumulative RUU occupancy
RUU_fcount                 24307216 # cumulative RUU full count
ruu_occupancy               59.6511 # avg RUU occupancy (insn's)
ruu_rate                     2.8501 # avg RUU dispatch rate (insn/cycle)
ruu_latency                 20.9298 # avg RUU occupant latency (cycle's)
ruu_full                     0.6928 # fraction of time (cycle's) RUU was full
LSQ_count                 649609957 # cumulative LSQ occupancy
LSQ_fcount                        0 # cumulative LSQ full count
lsq_occupancy               18.5142 # avg LSQ occupancy (insn's)
lsq_rate                     2.8501 # avg LSQ dispatch rate (insn/cycle)
lsq_latency                  6.4961 # avg LSQ occupant latency (cycle's)
lsq_full                     0.0000 # fraction of time (cycle's) LSQ was full
sim_slip                 2882684500 # total number of slip cycles
avg_sim_slip                28.8268 # the average slip between issue and retirement
il1.accesses              222991642 # total number of accesses
il1.hits                  222969004 # total number of hits
il1.misses                    22638 # total number of misses
il1.replacements              22383 # total number of replacements
il1.writebacks                    0 # total number of writebacks
il1.invalidations                 0 # total number of invalidations
il1.miss_rate                0.0001 # miss rate (i.e., misses/ref)
il1.repl_rate                0.0001 # replacement rate (i.e., repls/ref)
il1.wb_rate                  0.0000 # writeback rate (i.e., wrbks/ref)
il1.inv_rate                 0.0000 # invalidation rate (i.e., invs/ref)
dl1.accesses               36426236 # total number of accesses
dl1.hits                   36333596 # total number of hits
dl1.misses                    92640 # total number of misses
dl1.replacements              92384 # total number of replacements
dl1.writebacks                 7451 # total number of writebacks
dl1.invalidations                 0 # total number of invalidations
dl1.miss_rate                0.0025 # miss rate (i.e., misses/ref)
dl1.repl_rate                0.0025 # replacement rate (i.e., repls/ref)
dl1.wb_rate                  0.0002 # writeback rate (i.e., wrbks/ref)
dl1.inv_rate                 0.0000 # invalidation rate (i.e., invs/ref)
dl2.accesses                 122729 # total number of accesses
dl2.hits                      51237 # total number of hits
dl2.misses                    71492 # total number of misses
dl2.replacements              69444 # total number of replacements
dl2.writebacks                 1474 # total number of writebacks
dl2.invalidations                 0 # total number of invalidations
dl2.miss_rate                0.5825 # miss rate (i.e., misses/ref)
dl2.repl_rate                0.5658 # replacement rate (i.e., repls/ref)
dl2.wb_rate                  0.0120 # writeback rate (i.e., wrbks/ref)
dl2.inv_rate                 0.0000 # invalidation rate (i.e., invs/ref)
itlb.accesses             222991642 # total number of accesses
itlb.hits                 222991612 # total number of hits
itlb.misses                      30 # total number of misses
itlb.replacements                 0 # total number of replacements
itlb.writebacks                   0 # total number of writebacks
itlb.invalidations                0 # total number of invalidations
itlb.miss_rate               0.0000 # miss rate (i.e., misses/ref)
itlb.repl_rate               0.0000 # replacement rate (i.e., repls/ref)
itlb.wb_rate                 0.0000 # writeback rate (i.e., wrbks/ref)
itlb.inv_rate                0.0000 # invalidation rate (i.e., invs/ref)
dtlb.accesses              40095830 # total number of accesses
dtlb.hits                  40063873 # total number of hits
dtlb.misses                   31957 # total number of misses
dtlb.replacements             31829 # total number of replacements
dtlb.writebacks                   0 # total number of writebacks
dtlb.invalidations                0 # total number of invalidations
dtlb.miss_rate               0.0008 # miss rate (i.e., misses/ref)
dtlb.repl_rate               0.0008 # replacement rate (i.e., repls/ref)
dtlb.wb_rate                 0.0000 # writeback rate (i.e., wrbks/ref)
dtlb.inv_rate                0.0000 # invalidation rate (i.e., invs/ref)
rename_power           114759792.2570 # total power usage of rename unit
bpred_power            109336454.0073 # total power usage of bpred unit
window_power           1516322041.5754 # total power usage of instruction window
lsq_power              823807338.2227 # total power usage of load/store queue
regfile_power          882043768.4796 # total power usage of arch. regfile
icache_power           106407173.4730 # total power usage of icache
dcache_power           903687185.6283 # total power usage of dcache
dcache2_power          108874232.8225 # total power usage of dcache2
alu_power              1165668975.1790 # total power usage of alu
falu_power             1002158848.4840 # total power usage of falu
resultbus_power        1099210488.5364 # total power usage of resultbus
clock_power            2204718986.7276 # total power usage of clock
avg_rename_power             3.2707 # avg power usage of rename unit
avg_bpred_power              3.1162 # avg power usage of bpred unit
avg_window_power            43.2160 # avg power usage of instruction window
avg_lsq_power               23.4790 # avg power usage of lsq
avg_regfile_power           25.1387 # avg power usage of arch. regfile
avg_icache_power             3.0327 # avg power usage of icache
avg_dcache_power            25.7556 # avg power usage of dcache
avg_dcache2_power            3.1030 # avg power usage of dcache2
avg_alu_power               33.2222 # avg power usage of alu
avg_falu_power              28.5621 # avg power usage of falu
avg_resultbus_power         31.3281 # avg power usage of resultbus
avg_clock_power             62.8357 # avg power usage of clock
fetch_stage_power      215743627.4803 # total power usage of fetch stage
dispatch_stage_power   114759792.2570 # total power usage of dispatch stage
issue_stage_power      5617570261.9644 # total power usage of issue stage
avg_fetch_power              6.1488 # average power of fetch unit per cycle
avg_dispatch_power           3.2707 # average power of dispatch unit per cycle
avg_issue_power            160.1039 # average power of issue unit per cycle
total_power            9034836436.9089 # total power per cycle
avg_total_power_cycle      257.4979 # average total power per cycle
avg_total_power_cycle_nofp_nod2     225.8328 # average total power per cycle
avg_total_power_insn        90.3484 # average total power per insn
avg_total_power_insn_nofp_nod2      79.2380 # average total power per insn
rename_power_cc1       83568473.9350 # total power usage of rename unit_cc1
bpred_power_cc1              0.0000 # total power usage of bpred unit_cc1
window_power_cc1       1099135011.4591 # total power usage of instruction window_cc1
lsq_power_cc1          303910314.8013 # total power usage of lsq_cc1
regfile_power_cc1      545145882.9034 # total power usage of arch. regfile_cc1
icache_power_cc1       77505780.5869 # total power usage of icache_cc1
dcache_power_cc1       402057456.7605 # total power usage of dcache_cc1
dcache2_power_cc1       353776.5877 # total power usage of dcache2_cc1
alu_power_cc1          165090463.1891 # total power usage of alu_cc1
resultbus_power_cc1    829630328.8502 # total power usage of resultbus_cc1
clock_power_cc1        1140960648.8630 # total power usage of clock_cc1
avg_rename_power_cc1         2.3817 # avg power usage of rename unit_cc1
avg_bpred_power_cc1          0.0000 # avg power usage of bpred unit_cc1
avg_window_power_cc1        31.3260 # avg power usage of instruction window_cc1
avg_lsq_power_cc1            8.6616 # avg power usage of lsq_cc1
avg_regfile_power_cc1       15.5370 # avg power usage of arch. regfile_cc1
avg_icache_power_cc1         2.2090 # avg power usage of icache_cc1
avg_dcache_power_cc1        11.4589 # avg power usage of dcache_cc1
avg_dcache2_power_cc1        0.0101 # avg power usage of dcache2_cc1
avg_alu_power_cc1            4.7052 # avg power usage of alu_cc1
avg_resultbus_power_cc1      23.6449 # avg power usage of resultbus_cc1
avg_clock_power_cc1         32.5180 # avg power usage of clock_cc1
fetch_stage_power_cc1  77505780.5869 # total power usage of fetch stage_cc1
dispatch_stage_power_cc1 83568473.9350 # total power usage of dispatch stage_cc1
issue_stage_power_cc1  2800177351.6479 # total power usage of issue stage_cc1
avg_fetch_power_cc1          2.2090 # average power of fetch unit per cycle_cc1
avg_dispatch_power_cc1       2.3817 # average power of dispatch unit per cycle_cc1
avg_issue_power_cc1         79.8066 # average power of issue unit per cycle_cc1
total_power_cycle_cc1  4647358137.9362 # total power per cycle_cc1
avg_total_power_cycle_cc1     132.4523 # average total power per cycle_cc1
avg_total_power_insn_cc1      46.4736 # average total power per insn_cc1
rename_power_cc2       20441992.1835 # total power usage of rename unit_cc2
bpred_power_cc2              0.0000 # total power usage of bpred unit_cc2
window_power_cc2       384305787.3956 # total power usage of instruction window_cc2
lsq_power_cc2          68538440.4009 # total power usage of lsq_cc2
regfile_power_cc2      49586849.3404 # total power usage of arch. regfile_cc2
icache_power_cc2       77505780.5869 # total power usage of icache_cc2
dcache_power_cc2       117272410.0987 # total power usage of dcache_cc2
dcache2_power_cc2        47603.1545 # total power usage of dcache2_cc2
alu_power_cc2          120826256.7768 # total power usage of alu_cc2
resultbus_power_cc2    213898910.5575 # total power usage of resultbus_cc2
clock_power_cc2        342442999.1740 # total power usage of clock_cc2
avg_rename_power_cc2         0.5826 # avg power usage of rename unit_cc2
avg_bpred_power_cc2          0.0000 # avg power usage of bpred unit_cc2
avg_window_power_cc2        10.9529 # avg power usage of instruction window_cc2
avg_lsq_power_cc2            1.9534 # avg power usage of instruction lsq_cc2
avg_regfile_power_cc2        1.4133 # avg power usage of arch. regfile_cc2
avg_icache_power_cc2         2.2090 # avg power usage of icache_cc2
avg_dcache_power_cc2         3.3423 # avg power usage of dcache_cc2
avg_dcache2_power_cc2        0.0014 # avg power usage of dcache2_cc2
avg_alu_power_cc2            3.4436 # avg power usage of alu_cc2
avg_resultbus_power_cc2       6.0962 # avg power usage of resultbus_cc2
avg_clock_power_cc2          9.7598 # avg power usage of clock_cc2
fetch_stage_power_cc2  77505780.5869 # total power usage of fetch stage_cc2
dispatch_stage_power_cc2 20441992.1835 # total power usage of dispatch stage_cc2
issue_stage_power_cc2  904889408.3839 # total power usage of issue stage_cc2
avg_fetch_power_cc2          2.2090 # average power of fetch unit per cycle_cc2
avg_dispatch_power_cc2       0.5826 # average power of dispatch unit per cycle_cc2
avg_issue_power_cc2         25.7899 # average power of issue unit per cycle_cc2
total_power_cycle_cc2  1394867029.6687 # total power per cycle_cc2
avg_total_power_cycle_cc2      39.7545 # average total power per cycle_cc2
avg_total_power_insn_cc2      13.9487 # average total power per insn_cc2
rename_power_cc3       23561124.0264 # total power usage of rename unit_cc3
bpred_power_cc3        10933645.3919 # total power usage of bpred unit_cc3
window_power_cc3       413119838.1992 # total power usage of instruction window_cc3
lsq_power_cc3          119388361.1633 # total power usage of lsq_cc3
regfile_power_cc3      76997063.4567 # total power usage of arch. regfile_cc3
icache_power_cc3       80395919.8874 # total power usage of icache_cc3
dcache_power_cc3       167478491.8197 # total power usage of dcache_cc3
dcache2_power_cc3      10899648.7869 # total power usage of dcache2_cc3
alu_power_cc3          220884107.8124 # total power usage of alu_cc3
resultbus_power_cc3    235326057.5062 # total power usage of resultbus_cc3
clock_power_cc3        440420340.0304 # total power usage of clock_cc3
avg_rename_power_cc3         0.6715 # avg power usage of rename unit_cc3
avg_bpred_power_cc3          0.3116 # avg power usage of bpred unit_cc3
avg_window_power_cc3        11.7741 # avg power usage of instruction window_cc3
avg_lsq_power_cc3            3.4026 # avg power usage of instruction lsq_cc3
avg_regfile_power_cc3        2.1945 # avg power usage of arch. regfile_cc3
avg_icache_power_cc3         2.2913 # avg power usage of icache_cc3
avg_dcache_power_cc3         4.7732 # avg power usage of dcache_cc3
avg_dcache2_power_cc3        0.3106 # avg power usage of dcache2_cc3
avg_alu_power_cc3            6.2953 # avg power usage of alu_cc3
avg_resultbus_power_cc3       6.7069 # avg power usage of resultbus_cc3
avg_clock_power_cc3         12.5522 # avg power usage of clock_cc3
fetch_stage_power_cc3  91329565.2793 # total power usage of fetch stage_cc3
dispatch_stage_power_cc3 23561124.0264 # total power usage of dispatch stage_cc3
issue_stage_power_cc3  1167096505.2878 # total power usage of issue stage_cc3
avg_fetch_power_cc3          2.6029 # average power of fetch unit per cycle_cc3
avg_dispatch_power_cc3       0.6715 # average power of dispatch unit per cycle_cc3
avg_issue_power_cc3         33.2629 # average power of issue unit per cycle_cc3
total_power_cycle_cc3  1799404598.0805 # total power per cycle_cc3
avg_total_power_cycle_cc3      51.2840 # average total power per cycle_cc3
avg_total_power_insn_cc3      17.9940 # average total power per insn_cc3
total_rename_access       100000007 # total number accesses of rename unit
total_bpred_access                0 # total number accesses of bpred unit
total_window_access       358034166 # total number accesses of instruction window
total_lsq_access           43765424 # total number accesses of load/store queue
total_regfile_access      105108701 # total number accesses of arch. regfile
total_icache_access       222991642 # total number accesses of icache
total_dcache_access        36426236 # total number accesses of dcache
total_dcache2_access         122729 # total number accesses of dcache2
total_alu_access           99999365 # total number accesses of alu
total_resultbus_access    116526043 # total number accesses of resultbus
avg_rename_access            2.8501 # avg number accesses of rename unit
avg_bpred_access             0.0000 # avg number accesses of bpred unit
avg_window_access           10.2042 # avg number accesses of instruction window
avg_lsq_access               1.2473 # avg number accesses of lsq
avg_regfile_access           2.9957 # avg number accesses of arch. regfile
avg_icache_access            6.3554 # avg number accesses of icache
avg_dcache_access            1.0382 # avg number accesses of dcache
avg_dcache2_access           0.0035 # avg number accesses of dcache2
avg_alu_access               2.8500 # avg number accesses of alu
avg_resultbus_access         3.3211 # avg number accesses of resultbus
max_rename_access                16 # max number accesses of rename unit
max_bpred_access                  0 # max number accesses of bpred unit
max_window_access                41 # max number accesses of instruction window
max_lsq_access                   13 # max number accesses of load/store queue
max_regfile_access               39 # max number accesses of arch. regfile
max_icache_access                16 # max number accesses of icache
max_dcache_access                11 # max number accesses of dcache
max_dcache2_access                5 # max number accesses of dcache2
max_alu_access                    7 # max number accesses of alu
max_resultbus_access             12 # max number accesses of resultbus
max_cycle_power_cc1        211.8877 # maximum cycle power usage of cc1
max_cycle_power_cc2        115.3326 # maximum cycle power usage of cc2
max_cycle_power_cc3        121.2642 # maximum cycle power usage of cc3
sim_invalid_addrs                 0 # total non-speculative bogus addresses seen (debug var)
ld_text_base           0x0120000000 # program text (code) segment base
ld_text_size                 876544 # program text (code) size in bytes
ld_data_base           0x0140000000 # program initialized data segment base
ld_data_size                 131616 # program init'ed `.data' and uninit'ed `.bss' size in bytes
ld_stack_base          0x011ff9b000 # program stack segment base (highest address in stack)
ld_stack_size                 16384 # program initial stack size
ld_prog_entry          0x0120067d78 # program entry point (initial PC)
ld_environ_base        0x011ff96c80 # program environment base address address
ld_target_big_endian              0 # target executable endian-ness, non-zero if big endian
mem.page_count                 1161 # total number of pages allocated
mem.page_mem                  9288k # total size of memory pages allocated
mem.ptab_misses                2407 # total first level page table misses
mem.ptab_accesses        1047414532 # total page table accesses
mem.ptab_miss_rate           0.0000 # first level page table miss rate

