sim-outorder: SimpleScalar/Alpha Tool Set version 3.0 of August, 2003.
Copyright (c) 1994-2003 by Todd M. Austin, Ph.D. and SimpleScalar, LLC.
All Rights Reserved. This version of SimpleScalar is licensed for academic
non-commercial use.  No portion of this work may be used by any commercial
entity, or for any commercial purpose, without the prior written permission
of SimpleScalar, LLC (info@simplescalar.com).


Processor Parameters:
Issue Width: 16
Window Size: 64
Number of Virtual Registers: 32
Number of Physical Registers: 64
Datapath Width: 64
Total Power Consumption: 259.498
Branch Predictor Power Consumption: 3.11615  (1.21%)
 branch target buffer power (W): 2.49493
 local predict power (W): 0.354432
 global predict power (W): 0.0996078
 chooser power (W): 0.0702439
 RAS power (W): 0.0969383
Rename Logic Power Consumption: 3.27072  (1.27%)
 Instruction Decode Power (W): 0.0639661
 RAT decode_power (W): 0.454058
 RAT wordline_power (W): 0.227603
 RAT bitline_power (W): 2.30694
 DCL Comparators (W): 0.218151
Instruction Window Power Consumption: 43.216  (16.8%)
 tagdrive (W): 2.9395
 tagmatch (W): 0.989695
 Selection Logic (W): 0.225484
 decode_power (W): 0.976583
 wordline_power (W): 1.0557
 bitline_power (W): 37.0291
Load/Store Queue Power Consumption: 23.479  (9.12%)
 tagdrive (W): 11.1732
 tagmatch (W): 3.86294
 decode_power (W): 0.325528
 wordline_power (W): 0.139808
 bitline_power (W): 7.97753
Arch. Register File Power Consumption: 25.1387  (9.76%)
 decode_power (W): 0.454058
 wordline_power (W): 1.0557
 bitline_power (W): 23.629
Result Bus Power Consumption: 31.3281  (12.2%)
Total Clock Power: 62.8357  (24.4%)
Int ALU Power: 4.66013  (1.81%)
FP ALU Power: 28.5621  (11.1%)
Instruction Cache Power Consumption: 2.76773  (1.07%)
 decode_power (W): 0.151353
 wordline_power (W): 0.180479
 bitline_power (W): 1.42251
 senseamp_power (W): 0.768
 tagarray_power (W): 0.245382
Itlb_power (W): 0.264936 (0.103%)
Data Cache Power Consumption: 22.1418  (8.6%)
 decode_power (W): 1.21082
 wordline_power (W): 1.44383
 bitline_power (W): 11.3801
 senseamp_power (W): 6.144
 tagarray_power (W): 1.96306
Dtlb_power (W): 3.61376 (1.4%)
Level 2 Cache Power Consumption: 3.10298 (1.21%)
 decode_power (W): 0.19487
 wordline_power (W): 0.0430878
 bitline_power (W): 1.77274
 senseamp_power (W): 0.192
 tagarray_power (W): 0.900275
sim: loading EIO file: ../benchmarks/255.vortex.two-ref.eio.gz
sim: command line: ./sim-outorder -config ../configs/current.config ../benchmarks/255.vortex.two-ref.eio.gz 

sim: simulation started @ Tue Nov 24 13:37:54 2015, options follow:

sim-outorder: This simulator implements a very detailed out-of-order issue
superscalar processor with a two-level memory system and speculative
execution support.  This simulator is a performance simulator, tracking the
latency of all pipeline operations.

# -config                     # load configuration from a file
# -dumpconfig                 # dump configuration to a file
# -h                    false # print help message    
# -v                    false # verbose operation     
# -d                    false # enable debug message  
# -i                    false # start in Dlite debugger
-seed                       1 # random number generator seed (0 for timer seed)
# -q                    false # initialize and terminate immediately
# -chkpt               <null> # restore EIO trace execution from <fname>
# -redir:sim     ../results/29_23_memport/255.vortex.two-ref.eio.gz.out # redirect simulator output to file (non-interactive only)
# -redir:prog       /dev/null # redirect simulated program output to file
-nice                       0 # simulator scheduling priority
-freq            600000000.0000 # frequency             
-max:inst           100000000 # maximum number of inst's to execute
-fastfwd                    0 # number of insts skipped before timing starts
# -ptrace              <null> # generate pipetrace, i.e., <fname|stdout|stderr> <range>
-fetch:ifqsize             16 # instruction fetch queue size (in insts)
-fetch:mplat               15 # extra branch mis-prediction latency
-fetch:speed                1 # speed of front-end of machine relative to execution core
-bpred                perfect # branch predictor type {nottaken|taken|perfect|bimod|2lev|comb}
-bpred:bimod     2048 # bimodal predictor config (<table size>)
-bpred:2lev      1 8192 8 0 # 2-level predictor config (<l1size> <l2size> <hist_size> <xor>)
-bpred:comb      1024 # combining predictor config (<meta_table_size>)
-bpred:ras                  8 # return address stack size (0 for no return stack)
-bpred:btb       512 4 # BTB config (<num_sets> <associativity>)
# -bpred:spec_update       <null> # speculative predictors update in {ID|WB} (default non-spec)
-decode:width              16 # instruction decode B/W (insts/cycle)
-issue:width               16 # instruction issue B/W (insts/cycle)
-issue:inorder          false # run pipeline with in-order issue
-issue:wrongpath         true # issue instructions down wrong execution paths
-commit:width              16 # instruction commit B/W (insts/cycle)
-ruu:size                  64 # register update unit (RUU) size
-lsq:size                  64 # load/store queue (LSQ) size
-cache:dl1       dl1:32:64:8:f # l1 data cache config, i.e., {<config>|none}
-cache:dl1lat               1 # l1 data cache hit latency (in cycles)
-cache:dl2       dl2:256:64:8:f # l2 data cache config, i.e., {<config>|none}
-cache:dl2lat               2 # l2 data cache hit latency (in cycles)
-cache:il1       il1:32:64:8:f # l1 inst cache config, i.e., {<config>|dl1|dl2|none}
-cache:il1lat               1 # l1 instruction cache hit latency (in cycles)
-cache:il2                dl2 # l2 instruction cache config, i.e., {<config>|dl2|none}
-cache:il2lat               2 # l2 instruction cache hit latency (in cycles)
-cache:flush            false # flush caches on system calls
-cache:icompress        false # convert 64-bit inst addresses to 32-bit inst equivalents
-mem:lat         103 1 # memory access latency (<first_chunk> <inter_chunk>)
-mem:width                  8 # memory access bus width (in bytes)
-tlb:itlb        itlb:16:4096:4:l # instruction TLB config, i.e., {<config>|none}
-tlb:dtlb        dtlb:32:4096:4:l # data TLB config, i.e., {<config>|none}
-tlb:lat                   30 # inst/data TLB miss latency (in cycles)
-res:ialu                   4 # total number of integer ALU's available
-res:imult                  2 # total number of integer multiplier/dividers available
-res:memport                8 # total number of memory system ports available (to CPU)
-res:fpalu                  8 # total number of floating point ALU's available
-res:fpmult                 2 # total number of floating point multiplier/dividers available
# -pcstat              <null> # profile stat(s) against text addr's (mult uses ok)
-bugcompat              false # operate in backward-compatible bugs mode (for testing only)

  Pipetrace range arguments are formatted as follows:

    {{@|#}<start>}:{{@|#|+}<end>}

  Both ends of the range are optional, if neither are specified, the entire
  execution is traced.  Ranges that start with a `@' designate an address
  range to be traced, those that start with an `#' designate a cycle count
  range.  All other range values represent an instruction count range.  The
  second argument, if specified with a `+', indicates a value relative
  to the first argument, e.g., 1000:+100 == 1000:1100.  Program symbols may
  be used in all contexts.

    Examples:   -ptrace FOO.trc #0:#1000
                -ptrace BAR.trc @2000:
                -ptrace BLAH.trc :1500
                -ptrace UXXE.trc :
                -ptrace FOOBAR.trc @main:+278

  Branch predictor configuration examples for 2-level predictor:
    Configurations:   N, M, W, X
      N   # entries in first level (# of shift register(s))
      W   width of shift register(s)
      M   # entries in 2nd level (# of counters, or other FSM)
      X   (yes-1/no-0) xor history and address for 2nd level index
    Sample predictors:
      GAg     : 1, W, 2^W, 0
      GAp     : 1, W, M (M > 2^W), 0
      PAg     : N, W, 2^W, 0
      PAp     : N, W, M (M == 2^(N+W)), 0
      gshare  : 1, W, 2^W, 1
  Predictor `comb' combines a bimodal and a 2-level predictor.

  The cache config parameter <config> has the following format:

    <name>:<nsets>:<bsize>:<assoc>:<repl>

    <name>   - name of the cache being defined
    <nsets>  - number of sets in the cache
    <bsize>  - block size of the cache
    <assoc>  - associativity of the cache
    <repl>   - block replacement strategy, 'l'-LRU, 'f'-FIFO, 'r'-random

    Examples:   -cache:dl1 dl1:4096:32:1:l
                -dtlb dtlb:128:4096:32:r

  Cache levels can be unified by pointing a level of the instruction cache
  hierarchy at the data cache hiearchy using the "dl1" and "dl2" cache
  configuration arguments.  Most sensible combinations are supported, e.g.,

    A unified l2 cache (il2 is pointed at dl2):
      -cache:il1 il1:128:64:1:l -cache:il2 dl2
      -cache:dl1 dl1:256:32:1:l -cache:dl2 ul2:1024:64:2:l

    Or, a fully unified cache hierarchy (il1 pointed at dl1):
      -cache:il1 dl1
      -cache:dl1 ul1:256:32:1:l -cache:dl2 ul2:1024:64:2:l



sim: ** starting performance simulation **

sim: ** simulation statistics **
sim_num_insn              100000002 # total number of instructions committed
sim_num_refs               38466235 # total number of loads and stores committed
sim_num_loads              26218244 # total number of loads committed
sim_num_stores         12247991.0000 # total number of stores committed
sim_num_branches           17896986 # total number of branches committed
sim_elapsed_time                138 # total simulation time in seconds
sim_inst_rate           724637.6957 # simulation speed (in insts/sec)
sim_total_insn            100000002 # total number of instructions executed
sim_total_refs             38466235 # total number of loads and stores executed
sim_total_loads            26218244 # total number of loads executed
sim_total_stores       12247991.0000 # total number of stores executed
sim_total_branches         17896986 # total number of branches executed
sim_cycle                  68181619 # total simulation time in cycles
sim_IPC                      1.4667 # instructions per cycle
sim_CPI                      0.6818 # cycles per instruction
sim_exec_BW                  1.4667 # total instructions (mis-spec + committed) per cycle
sim_IPB                      5.5875 # instruction per branch
IFQ_count                 806157569 # cumulative IFQ occupancy
IFQ_fcount                 50058967 # cumulative IFQ full count
ifq_occupancy               11.8237 # avg IFQ occupancy (insn's)
ifq_rate                     1.4667 # avg IFQ dispatch rate (insn/cycle)
ifq_latency                  8.0616 # avg IFQ occupant latency (cycle's)
ifq_full                     0.7342 # fraction of time (cycle's) IFQ was full
RUU_count                3249902700 # cumulative RUU occupancy
RUU_fcount                 41947933 # cumulative RUU full count
ruu_occupancy               47.6654 # avg RUU occupancy (insn's)
ruu_rate                     1.4667 # avg RUU dispatch rate (insn/cycle)
ruu_latency                 32.4990 # avg RUU occupant latency (cycle's)
ruu_full                     0.6152 # fraction of time (cycle's) RUU was full
LSQ_count                1157076313 # cumulative LSQ occupancy
LSQ_fcount                        0 # cumulative LSQ full count
lsq_occupancy               16.9705 # avg LSQ occupancy (insn's)
lsq_rate                     1.4667 # avg LSQ dispatch rate (insn/cycle)
lsq_latency                 11.5708 # avg LSQ occupant latency (cycle's)
lsq_full                     0.0000 # fraction of time (cycle's) LSQ was full
sim_slip                 4545444577 # total number of slip cycles
avg_sim_slip                45.4544 # the average slip between issue and retirement
il1.accesses              197391284 # total number of accesses
il1.hits                  196897878 # total number of hits
il1.misses                   493406 # total number of misses
il1.replacements             493150 # total number of replacements
il1.writebacks                    0 # total number of writebacks
il1.invalidations                 0 # total number of invalidations
il1.miss_rate                0.0025 # miss rate (i.e., misses/ref)
il1.repl_rate                0.0025 # replacement rate (i.e., repls/ref)
il1.wb_rate                  0.0000 # writeback rate (i.e., wrbks/ref)
il1.inv_rate                 0.0000 # invalidation rate (i.e., invs/ref)
dl1.accesses               37668973 # total number of accesses
dl1.hits                   37148644 # total number of hits
dl1.misses                   520329 # total number of misses
dl1.replacements             520073 # total number of replacements
dl1.writebacks                61333 # total number of writebacks
dl1.invalidations                 0 # total number of invalidations
dl1.miss_rate                0.0138 # miss rate (i.e., misses/ref)
dl1.repl_rate                0.0138 # replacement rate (i.e., repls/ref)
dl1.wb_rate                  0.0016 # writeback rate (i.e., wrbks/ref)
dl1.inv_rate                 0.0000 # invalidation rate (i.e., invs/ref)
dl2.accesses                1075068 # total number of accesses
dl2.hits                     581497 # total number of hits
dl2.misses                   493571 # total number of misses
dl2.replacements             491523 # total number of replacements
dl2.writebacks                31763 # total number of writebacks
dl2.invalidations                 0 # total number of invalidations
dl2.miss_rate                0.4591 # miss rate (i.e., misses/ref)
dl2.repl_rate                0.4572 # replacement rate (i.e., repls/ref)
dl2.wb_rate                  0.0295 # writeback rate (i.e., wrbks/ref)
dl2.inv_rate                 0.0000 # invalidation rate (i.e., invs/ref)
itlb.accesses             197391284 # total number of accesses
itlb.hits                 197387380 # total number of hits
itlb.misses                    3904 # total number of misses
itlb.replacements              3841 # total number of replacements
itlb.writebacks                   0 # total number of writebacks
itlb.invalidations                0 # total number of invalidations
itlb.miss_rate               0.0000 # miss rate (i.e., misses/ref)
itlb.repl_rate               0.0000 # replacement rate (i.e., repls/ref)
itlb.wb_rate                 0.0000 # writeback rate (i.e., wrbks/ref)
itlb.inv_rate                0.0000 # invalidation rate (i.e., invs/ref)
dtlb.accesses              38466222 # total number of accesses
dtlb.hits                  38345806 # total number of hits
dtlb.misses                  120416 # total number of misses
dtlb.replacements            120288 # total number of replacements
dtlb.writebacks                   0 # total number of writebacks
dtlb.invalidations                0 # total number of invalidations
dtlb.miss_rate               0.0031 # miss rate (i.e., misses/ref)
dtlb.repl_rate               0.0031 # replacement rate (i.e., repls/ref)
dtlb.wb_rate                 0.0000 # writeback rate (i.e., wrbks/ref)
dtlb.inv_rate                0.0000 # invalidation rate (i.e., invs/ref)
rename_power           223002883.7844 # total power usage of rename unit
bpred_power            212464174.4472 # total power usage of bpred unit
window_power           2946538867.2878 # total power usage of instruction window
lsq_power              1600834304.3882 # total power usage of load/store queue
regfile_power          1714000175.9045 # total power usage of arch. regfile
icache_power           206771954.2805 # total power usage of icache
dcache_power           1756057979.5012 # total power usage of dcache
dcache2_power          211565979.8819 # total power usage of dcache2
alu_power              2265144772.1185 # total power usage of alu
falu_power             1947409532.4931 # total power usage of falu
resultbus_power        2136001680.2648 # total power usage of resultbus
clock_power            4284241742.2124 # total power usage of clock
avg_rename_power             3.2707 # avg power usage of rename unit
avg_bpred_power              3.1162 # avg power usage of bpred unit
avg_window_power            43.2160 # avg power usage of instruction window
avg_lsq_power               23.4790 # avg power usage of lsq
avg_regfile_power           25.1387 # avg power usage of arch. regfile
avg_icache_power             3.0327 # avg power usage of icache
avg_dcache_power            25.7556 # avg power usage of dcache
avg_dcache2_power            3.1030 # avg power usage of dcache2
avg_alu_power               33.2222 # avg power usage of alu
avg_falu_power              28.5621 # avg power usage of falu
avg_resultbus_power         31.3281 # avg power usage of resultbus
avg_clock_power             62.8357 # avg power usage of clock
fetch_stage_power      419236128.7277 # total power usage of fetch stage
dispatch_stage_power   223002883.7844 # total power usage of dispatch stage
issue_stage_power      10916143583.4424 # total power usage of issue stage
avg_fetch_power              6.1488 # average power of fetch unit per cycle
avg_dispatch_power           3.2707 # average power of dispatch unit per cycle
avg_issue_power            160.1039 # average power of issue unit per cycle
total_power            17556624514.0713 # total power per cycle
avg_total_power_cycle      257.4979 # average total power per cycle
avg_total_power_cycle_nofp_nod2     225.8328 # average total power per cycle
avg_total_power_insn       175.5662 # average total power per insn
avg_total_power_insn_nofp_nod2     153.9765 # average total power per insn
rename_power_cc1       66403367.0345 # total power usage of rename unit_cc1
bpred_power_cc1              0.0000 # total power usage of bpred unit_cc1
window_power_cc1       1056966993.4224 # total power usage of instruction window_cc1
lsq_power_cc1          290403609.7717 # total power usage of lsq_cc1
regfile_power_cc1      468326919.9134 # total power usage of arch. regfile_cc1
icache_power_cc1       61957429.5345 # total power usage of icache_cc1
dcache_power_cc1       472814423.8001 # total power usage of dcache_cc1
dcache2_power_cc1      3033411.1359 # total power usage of dcache2_cc1
alu_power_cc1          124194462.3212 # total power usage of alu_cc1
resultbus_power_cc1    777418937.6741 # total power usage of resultbus_cc1
clock_power_cc1        1093343134.4747 # total power usage of clock_cc1
avg_rename_power_cc1         0.9739 # avg power usage of rename unit_cc1
avg_bpred_power_cc1          0.0000 # avg power usage of bpred unit_cc1
avg_window_power_cc1        15.5022 # avg power usage of instruction window_cc1
avg_lsq_power_cc1            4.2593 # avg power usage of lsq_cc1
avg_regfile_power_cc1        6.8688 # avg power usage of arch. regfile_cc1
avg_icache_power_cc1         0.9087 # avg power usage of icache_cc1
avg_dcache_power_cc1         6.9346 # avg power usage of dcache_cc1
avg_dcache2_power_cc1        0.0445 # avg power usage of dcache2_cc1
avg_alu_power_cc1            1.8215 # avg power usage of alu_cc1
avg_resultbus_power_cc1      11.4022 # avg power usage of resultbus_cc1
avg_clock_power_cc1         16.0357 # avg power usage of clock_cc1
fetch_stage_power_cc1  61957429.5345 # total power usage of fetch stage_cc1
dispatch_stage_power_cc1 66403367.0345 # total power usage of dispatch stage_cc1
issue_stage_power_cc1  2724831838.1254 # total power usage of issue stage_cc1
avg_fetch_power_cc1          0.9087 # average power of fetch unit per cycle_cc1
avg_dispatch_power_cc1       0.9739 # average power of dispatch unit per cycle_cc1
avg_issue_power_cc1         39.9643 # average power of issue unit per cycle_cc1
total_power_cycle_cc1  4414862689.0825 # total power per cycle_cc1
avg_total_power_cycle_cc1      64.7515 # average total power per cycle_cc1
avg_total_power_insn_cc1      44.1486 # average total power per insn_cc1
rename_power_cc2       20441991.1631 # total power usage of rename unit_cc2
bpred_power_cc2              0.0000 # total power usage of bpred unit_cc2
window_power_cc2       381452643.9294 # total power usage of instruction window_cc2
lsq_power_cc2          61466226.5966 # total power usage of lsq_cc2
regfile_power_cc2      49410800.1386 # total power usage of arch. regfile_cc2
icache_power_cc2       61957429.5345 # total power usage of icache_cc2
dcache_power_cc2       121273338.5257 # total power usage of dcache_cc2
dcache2_power_cc2       416988.8791 # total power usage of dcache2_cc2
alu_power_cc2          116632039.2173 # total power usage of alu_cc2
resultbus_power_cc2    198837834.2825 # total power usage of resultbus_cc2
clock_power_cc2        333214408.7558 # total power usage of clock_cc2
avg_rename_power_cc2         0.2998 # avg power usage of rename unit_cc2
avg_bpred_power_cc2          0.0000 # avg power usage of bpred unit_cc2
avg_window_power_cc2         5.5947 # avg power usage of instruction window_cc2
avg_lsq_power_cc2            0.9015 # avg power usage of instruction lsq_cc2
avg_regfile_power_cc2        0.7247 # avg power usage of arch. regfile_cc2
avg_icache_power_cc2         0.9087 # avg power usage of icache_cc2
avg_dcache_power_cc2         1.7787 # avg power usage of dcache_cc2
avg_dcache2_power_cc2        0.0061 # avg power usage of dcache2_cc2
avg_alu_power_cc2            1.7106 # avg power usage of alu_cc2
avg_resultbus_power_cc2       2.9163 # avg power usage of resultbus_cc2
avg_clock_power_cc2          4.8872 # avg power usage of clock_cc2
fetch_stage_power_cc2  61957429.5345 # total power usage of fetch stage_cc2
dispatch_stage_power_cc2 20441991.1631 # total power usage of dispatch stage_cc2
issue_stage_power_cc2  880079071.4306 # total power usage of issue stage_cc2
avg_fetch_power_cc2          0.9087 # average power of fetch unit per cycle_cc2
avg_dispatch_power_cc2       0.2998 # average power of dispatch unit per cycle_cc2
avg_issue_power_cc2         12.9079 # average power of issue unit per cycle_cc2
total_power_cycle_cc2  1345103701.0226 # total power per cycle_cc2
avg_total_power_cycle_cc2      19.7282 # average total power per cycle_cc2
avg_total_power_insn_cc2      13.4510 # average total power per insn_cc2
rename_power_cc3       36101942.8995 # total power usage of rename unit_cc3
bpred_power_cc3        21246417.4877 # total power usage of bpred unit_cc3
window_power_cc3       558990060.3692 # total power usage of instruction window_cc3
lsq_power_cc3          191901688.2179 # total power usage of lsq_cc3
regfile_power_cc3      169554193.2689 # total power usage of arch. regfile_cc3
icache_power_cc3       76438882.1044 # total power usage of icache_cc3
dcache_power_cc3       249623803.4648 # total power usage of dcache_cc3
dcache2_power_cc3      21270245.7482 # total power usage of dcache2_cc3
alu_power_cc3          330727069.6752 # total power usage of alu_cc3
resultbus_power_cc3    329513318.0431 # total power usage of resultbus_cc3
clock_power_cc3        645186133.7134 # total power usage of clock_cc3
avg_rename_power_cc3         0.5295 # avg power usage of rename unit_cc3
avg_bpred_power_cc3          0.3116 # avg power usage of bpred unit_cc3
avg_window_power_cc3         8.1985 # avg power usage of instruction window_cc3
avg_lsq_power_cc3            2.8146 # avg power usage of instruction lsq_cc3
avg_regfile_power_cc3        2.4868 # avg power usage of arch. regfile_cc3
avg_icache_power_cc3         1.1211 # avg power usage of icache_cc3
avg_dcache_power_cc3         3.6612 # avg power usage of dcache_cc3
avg_dcache2_power_cc3        0.3120 # avg power usage of dcache2_cc3
avg_alu_power_cc3            4.8507 # avg power usage of alu_cc3
avg_resultbus_power_cc3       4.8329 # avg power usage of resultbus_cc3
avg_clock_power_cc3          9.4628 # avg power usage of clock_cc3
fetch_stage_power_cc3  97685299.5921 # total power usage of fetch stage_cc3
dispatch_stage_power_cc3 36101942.8995 # total power usage of dispatch stage_cc3
issue_stage_power_cc3  1682026185.5185 # total power usage of issue stage_cc3
avg_fetch_power_cc3          1.4327 # average power of fetch unit per cycle_cc3
avg_dispatch_power_cc3       0.5295 # average power of dispatch unit per cycle_cc3
avg_issue_power_cc3         24.6698 # average power of issue unit per cycle_cc3
total_power_cycle_cc3  2630553754.9923 # total power per cycle_cc3
avg_total_power_cycle_cc3      38.5816 # average total power per cycle_cc3
avg_total_power_insn_cc3      26.3055 # average total power per insn_cc3
total_rename_access       100000002 # total number accesses of rename unit
total_bpred_access                0 # total number accesses of bpred unit
total_window_access       356669107 # total number accesses of instruction window
total_lsq_access           39263471 # total number accesses of load/store queue
total_regfile_access      103412788 # total number accesses of arch. regfile
total_icache_access       197391284 # total number accesses of icache
total_dcache_access        37668973 # total number accesses of dcache
total_dcache2_access        1075068 # total number accesses of dcache2
total_alu_access           99950478 # total number accesses of alu
total_resultbus_access    108321197 # total number accesses of resultbus
avg_rename_access            1.4667 # avg number accesses of rename unit
avg_bpred_access             0.0000 # avg number accesses of bpred unit
avg_window_access            5.2312 # avg number accesses of instruction window
avg_lsq_access               0.5759 # avg number accesses of lsq
avg_regfile_access           1.5167 # avg number accesses of arch. regfile
avg_icache_access            2.8951 # avg number accesses of icache
avg_dcache_access            0.5525 # avg number accesses of dcache
avg_dcache2_access           0.0158 # avg number accesses of dcache2
avg_alu_access               1.4659 # avg number accesses of alu
avg_resultbus_access         1.5887 # avg number accesses of resultbus
max_rename_access                16 # max number accesses of rename unit
max_bpred_access                  0 # max number accesses of bpred unit
max_window_access                50 # max number accesses of instruction window
max_lsq_access                   16 # max number accesses of load/store queue
max_regfile_access               37 # max number accesses of arch. regfile
max_icache_access                16 # max number accesses of icache
max_dcache_access                12 # max number accesses of dcache
max_dcache2_access                7 # max number accesses of dcache2
max_alu_access                    7 # max number accesses of alu
max_resultbus_access             17 # max number accesses of resultbus
max_cycle_power_cc1        199.0561 # maximum cycle power usage of cc1
max_cycle_power_cc2        119.6601 # maximum cycle power usage of cc2
max_cycle_power_cc3        127.7037 # maximum cycle power usage of cc3
sim_invalid_addrs                 0 # total non-speculative bogus addresses seen (debug var)
ld_text_base           0x0120000000 # program text (code) segment base
ld_text_size                 819200 # program text (code) size in bytes
ld_data_base           0x0140000000 # program initialized data segment base
ld_data_size                 118976 # program init'ed `.data' and uninit'ed `.bss' size in bytes
ld_stack_base          0x011ff9b000 # program stack segment base (highest address in stack)
ld_stack_size                 16384 # program initial stack size
ld_prog_entry          0x012005fd04 # program entry point (initial PC)
ld_environ_base        0x011ff961e0 # program environment base address address
ld_target_big_endian              0 # target executable endian-ness, non-zero if big endian
mem.page_count                 7673 # total number of pages allocated
mem.page_mem                 61384k # total size of memory pages allocated
mem.ptab_misses                8134 # total first level page table misses
mem.ptab_accesses         975232010 # total page table accesses
mem.ptab_miss_rate           0.0000 # first level page table miss rate

