sim-outorder: SimpleScalar/Alpha Tool Set version 3.0 of August, 2003.
Copyright (c) 1994-2003 by Todd M. Austin, Ph.D. and SimpleScalar, LLC.
All Rights Reserved. This version of SimpleScalar is licensed for academic
non-commercial use.  No portion of this work may be used by any commercial
entity, or for any commercial purpose, without the prior written permission
of SimpleScalar, LLC (info@simplescalar.com).


Processor Parameters:
Issue Width: 16
Window Size: 64
Number of Virtual Registers: 32
Number of Physical Registers: 64
Datapath Width: 64
Total Power Consumption: 259.498
Branch Predictor Power Consumption: 3.11615  (1.21%)
 branch target buffer power (W): 2.49493
 local predict power (W): 0.354432
 global predict power (W): 0.0996078
 chooser power (W): 0.0702439
 RAS power (W): 0.0969383
Rename Logic Power Consumption: 3.27072  (1.27%)
 Instruction Decode Power (W): 0.0639661
 RAT decode_power (W): 0.454058
 RAT wordline_power (W): 0.227603
 RAT bitline_power (W): 2.30694
 DCL Comparators (W): 0.218151
Instruction Window Power Consumption: 43.216  (16.8%)
 tagdrive (W): 2.9395
 tagmatch (W): 0.989695
 Selection Logic (W): 0.225484
 decode_power (W): 0.976583
 wordline_power (W): 1.0557
 bitline_power (W): 37.0291
Load/Store Queue Power Consumption: 23.479  (9.12%)
 tagdrive (W): 11.1732
 tagmatch (W): 3.86294
 decode_power (W): 0.325528
 wordline_power (W): 0.139808
 bitline_power (W): 7.97753
Arch. Register File Power Consumption: 25.1387  (9.76%)
 decode_power (W): 0.454058
 wordline_power (W): 1.0557
 bitline_power (W): 23.629
Result Bus Power Consumption: 31.3281  (12.2%)
Total Clock Power: 62.8357  (24.4%)
Int ALU Power: 4.66013  (1.81%)
FP ALU Power: 28.5621  (11.1%)
Instruction Cache Power Consumption: 2.76773  (1.07%)
 decode_power (W): 0.151353
 wordline_power (W): 0.180479
 bitline_power (W): 1.42251
 senseamp_power (W): 0.768
 tagarray_power (W): 0.245382
Itlb_power (W): 0.264936 (0.103%)
Data Cache Power Consumption: 22.1418  (8.6%)
 decode_power (W): 1.21082
 wordline_power (W): 1.44383
 bitline_power (W): 11.3801
 senseamp_power (W): 6.144
 tagarray_power (W): 1.96306
Dtlb_power (W): 3.61376 (1.4%)
Level 2 Cache Power Consumption: 3.10298 (1.21%)
 decode_power (W): 0.19487
 wordline_power (W): 0.0430878
 bitline_power (W): 1.77274
 senseamp_power (W): 0.192
 tagarray_power (W): 0.900275
sim: loading EIO file: ../benchmarks/256.bzip2.source-ref.eio.gz
sim: command line: ./sim-outorder -config ../configs/current.config ../benchmarks/256.bzip2.source-ref.eio.gz 

sim: simulation started @ Tue Nov 24 13:38:03 2015, options follow:

sim-outorder: This simulator implements a very detailed out-of-order issue
superscalar processor with a two-level memory system and speculative
execution support.  This simulator is a performance simulator, tracking the
latency of all pipeline operations.

# -config                     # load configuration from a file
# -dumpconfig                 # dump configuration to a file
# -h                    false # print help message    
# -v                    false # verbose operation     
# -d                    false # enable debug message  
# -i                    false # start in Dlite debugger
-seed                       1 # random number generator seed (0 for timer seed)
# -q                    false # initialize and terminate immediately
# -chkpt               <null> # restore EIO trace execution from <fname>
# -redir:sim     ../results/29_23_memport/256.bzip2.source-ref.eio.gz.out # redirect simulator output to file (non-interactive only)
# -redir:prog       /dev/null # redirect simulated program output to file
-nice                       0 # simulator scheduling priority
-freq            600000000.0000 # frequency             
-max:inst           100000000 # maximum number of inst's to execute
-fastfwd                    0 # number of insts skipped before timing starts
# -ptrace              <null> # generate pipetrace, i.e., <fname|stdout|stderr> <range>
-fetch:ifqsize             16 # instruction fetch queue size (in insts)
-fetch:mplat               15 # extra branch mis-prediction latency
-fetch:speed                1 # speed of front-end of machine relative to execution core
-bpred                perfect # branch predictor type {nottaken|taken|perfect|bimod|2lev|comb}
-bpred:bimod     2048 # bimodal predictor config (<table size>)
-bpred:2lev      1 8192 8 0 # 2-level predictor config (<l1size> <l2size> <hist_size> <xor>)
-bpred:comb      1024 # combining predictor config (<meta_table_size>)
-bpred:ras                  8 # return address stack size (0 for no return stack)
-bpred:btb       512 4 # BTB config (<num_sets> <associativity>)
# -bpred:spec_update       <null> # speculative predictors update in {ID|WB} (default non-spec)
-decode:width              16 # instruction decode B/W (insts/cycle)
-issue:width               16 # instruction issue B/W (insts/cycle)
-issue:inorder          false # run pipeline with in-order issue
-issue:wrongpath         true # issue instructions down wrong execution paths
-commit:width              16 # instruction commit B/W (insts/cycle)
-ruu:size                  64 # register update unit (RUU) size
-lsq:size                  64 # load/store queue (LSQ) size
-cache:dl1       dl1:32:64:8:f # l1 data cache config, i.e., {<config>|none}
-cache:dl1lat               1 # l1 data cache hit latency (in cycles)
-cache:dl2       dl2:256:64:8:f # l2 data cache config, i.e., {<config>|none}
-cache:dl2lat               2 # l2 data cache hit latency (in cycles)
-cache:il1       il1:32:64:8:f # l1 inst cache config, i.e., {<config>|dl1|dl2|none}
-cache:il1lat               1 # l1 instruction cache hit latency (in cycles)
-cache:il2                dl2 # l2 instruction cache config, i.e., {<config>|dl2|none}
-cache:il2lat               2 # l2 instruction cache hit latency (in cycles)
-cache:flush            false # flush caches on system calls
-cache:icompress        false # convert 64-bit inst addresses to 32-bit inst equivalents
-mem:lat         103 1 # memory access latency (<first_chunk> <inter_chunk>)
-mem:width                  8 # memory access bus width (in bytes)
-tlb:itlb        itlb:16:4096:4:l # instruction TLB config, i.e., {<config>|none}
-tlb:dtlb        dtlb:32:4096:4:l # data TLB config, i.e., {<config>|none}
-tlb:lat                   30 # inst/data TLB miss latency (in cycles)
-res:ialu                   4 # total number of integer ALU's available
-res:imult                  2 # total number of integer multiplier/dividers available
-res:memport                8 # total number of memory system ports available (to CPU)
-res:fpalu                  8 # total number of floating point ALU's available
-res:fpmult                 2 # total number of floating point multiplier/dividers available
# -pcstat              <null> # profile stat(s) against text addr's (mult uses ok)
-bugcompat              false # operate in backward-compatible bugs mode (for testing only)

  Pipetrace range arguments are formatted as follows:

    {{@|#}<start>}:{{@|#|+}<end>}

  Both ends of the range are optional, if neither are specified, the entire
  execution is traced.  Ranges that start with a `@' designate an address
  range to be traced, those that start with an `#' designate a cycle count
  range.  All other range values represent an instruction count range.  The
  second argument, if specified with a `+', indicates a value relative
  to the first argument, e.g., 1000:+100 == 1000:1100.  Program symbols may
  be used in all contexts.

    Examples:   -ptrace FOO.trc #0:#1000
                -ptrace BAR.trc @2000:
                -ptrace BLAH.trc :1500
                -ptrace UXXE.trc :
                -ptrace FOOBAR.trc @main:+278

  Branch predictor configuration examples for 2-level predictor:
    Configurations:   N, M, W, X
      N   # entries in first level (# of shift register(s))
      W   width of shift register(s)
      M   # entries in 2nd level (# of counters, or other FSM)
      X   (yes-1/no-0) xor history and address for 2nd level index
    Sample predictors:
      GAg     : 1, W, 2^W, 0
      GAp     : 1, W, M (M > 2^W), 0
      PAg     : N, W, 2^W, 0
      PAp     : N, W, M (M == 2^(N+W)), 0
      gshare  : 1, W, 2^W, 1
  Predictor `comb' combines a bimodal and a 2-level predictor.

  The cache config parameter <config> has the following format:

    <name>:<nsets>:<bsize>:<assoc>:<repl>

    <name>   - name of the cache being defined
    <nsets>  - number of sets in the cache
    <bsize>  - block size of the cache
    <assoc>  - associativity of the cache
    <repl>   - block replacement strategy, 'l'-LRU, 'f'-FIFO, 'r'-random

    Examples:   -cache:dl1 dl1:4096:32:1:l
                -dtlb dtlb:128:4096:32:r

  Cache levels can be unified by pointing a level of the instruction cache
  hierarchy at the data cache hiearchy using the "dl1" and "dl2" cache
  configuration arguments.  Most sensible combinations are supported, e.g.,

    A unified l2 cache (il2 is pointed at dl2):
      -cache:il1 il1:128:64:1:l -cache:il2 dl2
      -cache:dl1 dl1:256:32:1:l -cache:dl2 ul2:1024:64:2:l

    Or, a fully unified cache hierarchy (il1 pointed at dl1):
      -cache:il1 dl1
      -cache:dl1 ul1:256:32:1:l -cache:dl2 ul2:1024:64:2:l



sim: ** starting performance simulation **

sim: ** simulation statistics **
sim_num_insn              100000000 # total number of instructions committed
sim_num_refs               55329424 # total number of loads and stores committed
sim_num_loads              37434147 # total number of loads committed
sim_num_stores         17895277.0000 # total number of stores committed
sim_num_branches            6957294 # total number of branches committed
sim_elapsed_time                144 # total simulation time in seconds
sim_inst_rate           694444.4444 # simulation speed (in insts/sec)
sim_total_insn            100000000 # total number of instructions executed
sim_total_refs             55329424 # total number of loads and stores executed
sim_total_loads            37434147 # total number of loads executed
sim_total_stores       17895277.0000 # total number of stores executed
sim_total_branches          6957294 # total number of branches executed
sim_cycle                  28983849 # total simulation time in cycles
sim_IPC                      3.4502 # instructions per cycle
sim_CPI                      0.2898 # cycles per instruction
sim_exec_BW                  3.4502 # total instructions (mis-spec + committed) per cycle
sim_IPB                     14.3734 # instruction per branch
IFQ_count                 462935722 # cumulative IFQ occupancy
IFQ_fcount                 28933134 # cumulative IFQ full count
ifq_occupancy               15.9722 # avg IFQ occupancy (insn's)
ifq_rate                     3.4502 # avg IFQ dispatch rate (insn/cycle)
ifq_latency                  4.6294 # avg IFQ occupant latency (cycle's)
ifq_full                     0.9983 # fraction of time (cycle's) IFQ was full
RUU_count                1833185502 # cumulative RUU occupancy
RUU_fcount                 24405476 # cumulative RUU full count
ruu_occupancy               63.2485 # avg RUU occupancy (insn's)
ruu_rate                     3.4502 # avg RUU dispatch rate (insn/cycle)
ruu_latency                 18.3319 # avg RUU occupant latency (cycle's)
ruu_full                     0.8420 # fraction of time (cycle's) RUU was full
LSQ_count                 987549598 # cumulative LSQ occupancy
LSQ_fcount                        0 # cumulative LSQ full count
lsq_occupancy               34.0724 # avg LSQ occupancy (insn's)
lsq_rate                     3.4502 # avg LSQ dispatch rate (insn/cycle)
lsq_latency                  9.8755 # avg LSQ occupant latency (cycle's)
lsq_full                     0.0000 # fraction of time (cycle's) LSQ was full
sim_slip                 2976063552 # total number of slip cycles
avg_sim_slip                29.7606 # the average slip between issue and retirement
il1.accesses              164186347 # total number of accesses
il1.hits                  164185885 # total number of hits
il1.misses                      462 # total number of misses
il1.replacements                206 # total number of replacements
il1.writebacks                    0 # total number of writebacks
il1.invalidations                 0 # total number of invalidations
il1.miss_rate                0.0000 # miss rate (i.e., misses/ref)
il1.repl_rate                0.0000 # replacement rate (i.e., repls/ref)
il1.wb_rate                  0.0000 # writeback rate (i.e., wrbks/ref)
il1.inv_rate                 0.0000 # invalidation rate (i.e., invs/ref)
dl1.accesses               53979371 # total number of accesses
dl1.hits                   52980631 # total number of hits
dl1.misses                   998740 # total number of misses
dl1.replacements             998484 # total number of replacements
dl1.writebacks               959789 # total number of writebacks
dl1.invalidations                 0 # total number of invalidations
dl1.miss_rate                0.0185 # miss rate (i.e., misses/ref)
dl1.repl_rate                0.0185 # replacement rate (i.e., repls/ref)
dl1.wb_rate                  0.0178 # writeback rate (i.e., wrbks/ref)
dl1.inv_rate                 0.0000 # invalidation rate (i.e., invs/ref)
dl2.accesses                1958991 # total number of accesses
dl2.hits                     971632 # total number of hits
dl2.misses                   987359 # total number of misses
dl2.replacements             985311 # total number of replacements
dl2.writebacks               955426 # total number of writebacks
dl2.invalidations                 0 # total number of invalidations
dl2.miss_rate                0.5040 # miss rate (i.e., misses/ref)
dl2.repl_rate                0.5030 # replacement rate (i.e., repls/ref)
dl2.wb_rate                  0.4877 # writeback rate (i.e., wrbks/ref)
dl2.inv_rate                 0.0000 # invalidation rate (i.e., invs/ref)
itlb.accesses             164186347 # total number of accesses
itlb.hits                 164186321 # total number of hits
itlb.misses                      26 # total number of misses
itlb.replacements                 0 # total number of replacements
itlb.writebacks                   0 # total number of writebacks
itlb.invalidations                0 # total number of invalidations
itlb.miss_rate               0.0000 # miss rate (i.e., misses/ref)
itlb.repl_rate               0.0000 # replacement rate (i.e., repls/ref)
itlb.wb_rate                 0.0000 # writeback rate (i.e., wrbks/ref)
itlb.inv_rate                0.0000 # invalidation rate (i.e., invs/ref)
dtlb.accesses              55329399 # total number of accesses
dtlb.hits                  55314113 # total number of hits
dtlb.misses                   15286 # total number of misses
dtlb.replacements             15158 # total number of replacements
dtlb.writebacks                   0 # total number of writebacks
dtlb.invalidations                0 # total number of invalidations
dtlb.miss_rate               0.0003 # miss rate (i.e., misses/ref)
dtlb.repl_rate               0.0003 # replacement rate (i.e., repls/ref)
dtlb.wb_rate                 0.0000 # writeback rate (i.e., wrbks/ref)
dtlb.inv_rate                0.0000 # invalidation rate (i.e., invs/ref)
rename_power           94798011.7018 # total power usage of rename unit
bpred_power            90318030.7251 # total power usage of bpred unit
window_power           1252566876.9887 # total power usage of instruction window
lsq_power              680510971.0812 # total power usage of load/store queue
regfile_power          728617522.0362 # total power usage of arch. regfile
icache_power           87898281.0458 # total power usage of icache
dcache_power           746496196.0161 # total power usage of dcache
dcache2_power          89936210.1671 # total power usage of dcache2
alu_power              962907817.5709 # total power usage of alu
falu_power             827839301.0879 # total power usage of falu
resultbus_power        908009387.7662 # total power usage of resultbus
clock_power            1821221284.2996 # total power usage of clock
avg_rename_power             3.2707 # avg power usage of rename unit
avg_bpred_power              3.1162 # avg power usage of bpred unit
avg_window_power            43.2160 # avg power usage of instruction window
avg_lsq_power               23.4790 # avg power usage of lsq
avg_regfile_power           25.1387 # avg power usage of arch. regfile
avg_icache_power             3.0327 # avg power usage of icache
avg_dcache_power            25.7556 # avg power usage of dcache
avg_dcache2_power            3.1030 # avg power usage of dcache2
avg_alu_power               33.2222 # avg power usage of alu
avg_falu_power              28.5621 # avg power usage of falu
avg_resultbus_power         31.3281 # avg power usage of resultbus
avg_clock_power             62.8357 # avg power usage of clock
fetch_stage_power      178216311.7709 # total power usage of fetch stage
dispatch_stage_power   94798011.7018 # total power usage of dispatch stage
issue_stage_power      4640427459.5901 # total power usage of issue stage
avg_fetch_power              6.1488 # average power of fetch unit per cycle
avg_dispatch_power           3.2707 # average power of dispatch unit per cycle
avg_issue_power            160.1039 # average power of issue unit per cycle
total_power            7463280589.3986 # total power per cycle
avg_total_power_cycle      257.4979 # average total power per cycle
avg_total_power_cycle_nofp_nod2     225.8328 # average total power per cycle
avg_total_power_insn        74.6328 # average total power per insn
avg_total_power_insn_nofp_nod2      65.4551 # average total power per insn
rename_power_cc1       77674678.4198 # total power usage of rename unit_cc1
bpred_power_cc1              0.0000 # total power usage of bpred unit_cc1
window_power_cc1       1009231028.2507 # total power usage of instruction window_cc1
lsq_power_cc1          369669756.2813 # total power usage of lsq_cc1
regfile_power_cc1      532975111.9701 # total power usage of arch. regfile_cc1
icache_power_cc1       72021522.7878 # total power usage of icache_cc1
dcache_power_cc1       501531390.8035 # total power usage of dcache_cc1
dcache2_power_cc1      3087868.3782 # total power usage of dcache2_cc1
alu_power_cc1          118719276.5517 # total power usage of alu_cc1
resultbus_power_cc1    760881890.4638 # total power usage of resultbus_cc1
clock_power_cc1        981353873.4250 # total power usage of clock_cc1
avg_rename_power_cc1         2.6799 # avg power usage of rename unit_cc1
avg_bpred_power_cc1          0.0000 # avg power usage of bpred unit_cc1
avg_window_power_cc1        34.8205 # avg power usage of instruction window_cc1
avg_lsq_power_cc1           12.7543 # avg power usage of lsq_cc1
avg_regfile_power_cc1       18.3887 # avg power usage of arch. regfile_cc1
avg_icache_power_cc1         2.4849 # avg power usage of icache_cc1
avg_dcache_power_cc1        17.3038 # avg power usage of dcache_cc1
avg_dcache2_power_cc1        0.1065 # avg power usage of dcache2_cc1
avg_alu_power_cc1            4.0960 # avg power usage of alu_cc1
avg_resultbus_power_cc1      26.2519 # avg power usage of resultbus_cc1
avg_clock_power_cc1         33.8586 # avg power usage of clock_cc1
fetch_stage_power_cc1  72021522.7878 # total power usage of fetch stage_cc1
dispatch_stage_power_cc1 77674678.4198 # total power usage of dispatch stage_cc1
issue_stage_power_cc1  2763121210.7292 # total power usage of issue stage_cc1
avg_fetch_power_cc1          2.4849 # average power of fetch unit per cycle_cc1
avg_dispatch_power_cc1       2.6799 # average power of dispatch unit per cycle_cc1
avg_issue_power_cc1         95.3331 # average power of issue unit per cycle_cc1
total_power_cycle_cc1  4427146397.3319 # total power per cycle_cc1
avg_total_power_cycle_cc1     152.7453 # average total power per cycle_cc1
avg_total_power_insn_cc1      44.2715 # average total power per insn_cc1
rename_power_cc2       20441990.7550 # total power usage of rename unit_cc2
bpred_power_cc2              0.0000 # total power usage of bpred unit_cc2
window_power_cc2       415839255.6758 # total power usage of instruction window_cc2
lsq_power_cc2          89266485.1941 # total power usage of lsq_cc2
regfile_power_cc2      57264326.6775 # total power usage of arch. regfile_cc2
icache_power_cc2       72021522.7878 # total power usage of icache_cc2
dcache_power_cc2       173783833.5595 # total power usage of dcache_cc2
dcache2_power_cc2       759837.9462 # total power usage of dcache2_cc2
alu_power_cc2          115394997.2935 # total power usage of alu_cc2
resultbus_power_cc2    239507382.1582 # total power usage of resultbus_cc2
clock_power_cc2        320993205.6645 # total power usage of clock_cc2
avg_rename_power_cc2         0.7053 # avg power usage of rename unit_cc2
avg_bpred_power_cc2          0.0000 # avg power usage of bpred unit_cc2
avg_window_power_cc2        14.3473 # avg power usage of instruction window_cc2
avg_lsq_power_cc2            3.0799 # avg power usage of instruction lsq_cc2
avg_regfile_power_cc2        1.9757 # avg power usage of arch. regfile_cc2
avg_icache_power_cc2         2.4849 # avg power usage of icache_cc2
avg_dcache_power_cc2         5.9959 # avg power usage of dcache_cc2
avg_dcache2_power_cc2        0.0262 # avg power usage of dcache2_cc2
avg_alu_power_cc2            3.9814 # avg power usage of alu_cc2
avg_resultbus_power_cc2       8.2635 # avg power usage of resultbus_cc2
avg_clock_power_cc2         11.0749 # avg power usage of clock_cc2
fetch_stage_power_cc2  72021522.7878 # total power usage of fetch stage_cc2
dispatch_stage_power_cc2 20441990.7550 # total power usage of dispatch stage_cc2
issue_stage_power_cc2  1034551791.8274 # total power usage of issue stage_cc2
avg_fetch_power_cc2          2.4849 # average power of fetch unit per cycle_cc2
avg_dispatch_power_cc2       0.7053 # average power of dispatch unit per cycle_cc2
avg_issue_power_cc2         35.6941 # average power of issue unit per cycle_cc2
total_power_cycle_cc2  1505272837.7122 # total power per cycle_cc2
avg_total_power_cycle_cc2      51.9349 # average total power per cycle_cc2
avg_total_power_insn_cc2      15.0527 # average total power per insn_cc2
rename_power_cc3       22154324.0865 # total power usage of rename unit_cc3
bpred_power_cc3        9031803.0660 # total power usage of bpred unit_cc3
window_power_cc3       429057846.3564 # total power usage of instruction window_cc3
lsq_power_cc3          119668109.1885 # total power usage of lsq_cc3
regfile_power_cc3      71000434.8403 # total power usage of arch. regfile_cc3
icache_power_cc3       73609198.6170 # total power usage of icache_cc3
dcache_power_cc3       198390728.9772 # total power usage of dcache_cc3
dcache2_power_cc3      9444672.1319 # total power usage of dcache2_cc3
alu_power_cc3          199813851.2729 # total power usage of alu_cc3
resultbus_power_cc3    249149314.7688 # total power usage of resultbus_cc3
clock_power_cc3        398782873.0477 # total power usage of clock_cc3
avg_rename_power_cc3         0.7644 # avg power usage of rename unit_cc3
avg_bpred_power_cc3          0.3116 # avg power usage of bpred unit_cc3
avg_window_power_cc3        14.8033 # avg power usage of instruction window_cc3
avg_lsq_power_cc3            4.1288 # avg power usage of instruction lsq_cc3
avg_regfile_power_cc3        2.4497 # avg power usage of arch. regfile_cc3
avg_icache_power_cc3         2.5397 # avg power usage of icache_cc3
avg_dcache_power_cc3         6.8449 # avg power usage of dcache_cc3
avg_dcache2_power_cc3        0.3259 # avg power usage of dcache2_cc3
avg_alu_power_cc3            6.8940 # avg power usage of alu_cc3
avg_resultbus_power_cc3       8.5961 # avg power usage of resultbus_cc3
avg_clock_power_cc3         13.7588 # avg power usage of clock_cc3
fetch_stage_power_cc3  82641001.6830 # total power usage of fetch stage_cc3
dispatch_stage_power_cc3 22154324.0865 # total power usage of dispatch stage_cc3
issue_stage_power_cc3  1205524522.6955 # total power usage of issue stage_cc3
avg_fetch_power_cc3          2.8513 # average power of fetch unit per cycle_cc3
avg_dispatch_power_cc3       0.7644 # average power of dispatch unit per cycle_cc3
avg_issue_power_cc3         41.5930 # average power of issue unit per cycle_cc3
total_power_cycle_cc3  1780103156.3530 # total power per cycle_cc3
avg_total_power_cycle_cc3      61.4171 # average total power per cycle_cc3
avg_total_power_insn_cc3      17.8010 # average total power per insn_cc3
total_rename_access       100000000 # total number accesses of rename unit
total_bpred_access                0 # total number accesses of bpred unit
total_window_access       385296562 # total number accesses of instruction window
total_lsq_access           56679432 # total number accesses of load/store queue
total_regfile_access      122105608 # total number accesses of arch. regfile
total_icache_access       164186347 # total number accesses of icache
total_dcache_access        53979371 # total number accesses of dcache
total_dcache2_access        1958991 # total number accesses of dcache2
total_alu_access           99048696 # total number accesses of alu
total_resultbus_access    130476810 # total number accesses of resultbus
avg_rename_access            3.4502 # avg number accesses of rename unit
avg_bpred_access             0.0000 # avg number accesses of bpred unit
avg_window_access           13.2935 # avg number accesses of instruction window
avg_lsq_access               1.9556 # avg number accesses of lsq
avg_regfile_access           4.2129 # avg number accesses of arch. regfile
avg_icache_access            5.6648 # avg number accesses of icache
avg_dcache_access            1.8624 # avg number accesses of dcache
avg_dcache2_access           0.0676 # avg number accesses of dcache2
avg_alu_access               3.4174 # avg number accesses of alu
avg_resultbus_access         4.5017 # avg number accesses of resultbus
max_rename_access                16 # max number accesses of rename unit
max_bpred_access                  0 # max number accesses of bpred unit
max_window_access                45 # max number accesses of instruction window
max_lsq_access                   15 # max number accesses of load/store queue
max_regfile_access               44 # max number accesses of arch. regfile
max_icache_access                16 # max number accesses of icache
max_dcache_access                12 # max number accesses of dcache
max_dcache2_access                5 # max number accesses of dcache2
max_alu_access                    7 # max number accesses of alu
max_resultbus_access             35 # max number accesses of resultbus
max_cycle_power_cc1        196.8648 # maximum cycle power usage of cc1
max_cycle_power_cc2        120.8183 # maximum cycle power usage of cc2
max_cycle_power_cc3        127.0912 # maximum cycle power usage of cc3
sim_invalid_addrs                 0 # total non-speculative bogus addresses seen (debug var)
ld_text_base           0x0120000000 # program text (code) segment base
ld_text_size                 196608 # program text (code) size in bytes
ld_data_base           0x0140000000 # program initialized data segment base
ld_data_size                 146544 # program init'ed `.data' and uninit'ed `.bss' size in bytes
ld_stack_base          0x011ff9b000 # program stack segment base (highest address in stack)
ld_stack_size                 16384 # program initial stack size
ld_prog_entry          0x012000b53c # program entry point (initial PC)
ld_environ_base        0x011ff96e90 # program environment base address address
ld_target_big_endian              0 # target executable endian-ness, non-zero if big endian
mem.page_count                23556 # total number of pages allocated
mem.page_mem                188448k # total size of memory pages allocated
mem.ptab_misses             2458783 # total first level page table misses
mem.ptab_accesses        1323515160 # total page table accesses
mem.ptab_miss_rate           0.0019 # first level page table miss rate

