sim-outorder: SimpleScalar/Alpha Tool Set version 3.0 of August, 2003.
Copyright (c) 1994-2003 by Todd M. Austin, Ph.D. and SimpleScalar, LLC.
All Rights Reserved. This version of SimpleScalar is licensed for academic
non-commercial use.  No portion of this work may be used by any commercial
entity, or for any commercial purpose, without the prior written permission
of SimpleScalar, LLC (info@simplescalar.com).


Processor Parameters:
Issue Width: 4
Window Size: 16
Number of Virtual Registers: 32
Number of Physical Registers: 16
Datapath Width: 64
Total Power Consumption: 72.5417
Branch Predictor Power Consumption: 2.84969  (4.04%)
 branch target buffer power (W): 2.49493
 local predict power (W): 0.0879711
 global predict power (W): 0.0996078
 chooser power (W): 0.0702439
 RAS power (W): 0.0969383
Rename Logic Power Consumption: 0.417965  (0.593%)
 Instruction Decode Power (W): 0.0159915
 RAT decode_power (W): 0.113514
 RAT wordline_power (W): 0.0307815
 RAT bitline_power (W): 0.246771
 DCL Comparators (W): 0.0109075
Instruction Window Power Consumption: 2.20432  (3.12%)
 tagdrive (W): 0.0943488
 tagmatch (W): 0.033695
 Selection Logic (W): 0.0134217
 decode_power (W): 0.0532503
 wordline_power (W): 0.0844643
 bitline_power (W): 1.92514
Load/Store Queue Power Consumption: 0.96318  (1.37%)
 tagdrive (W): 0.457232
 tagmatch (W): 0.100774
 decode_power (W): 0.00799577
 wordline_power (W): 0.0150119
 bitline_power (W): 0.382166
Arch. Register File Power Consumption: 3.57247  (5.06%)
 decode_power (W): 0.113514
 wordline_power (W): 0.0844643
 bitline_power (W): 3.37449
Result Bus Power Consumption: 2.29754  (3.26%)
Total Clock Power: 26.7211  (37.9%)
Int ALU Power: 4.66013  (6.61%)
FP ALU Power: 14.281  (20.2%)
Instruction Cache Power Consumption: 2.76773  (3.92%)
 decode_power (W): 0.151353
 wordline_power (W): 0.180479
 bitline_power (W): 1.42251
 senseamp_power (W): 0.768
 tagarray_power (W): 0.245382
Itlb_power (W): 0.264834 (0.375%)
Data Cache Power Consumption: 5.53546  (7.85%)
 decode_power (W): 0.302705
 wordline_power (W): 0.360958
 bitline_power (W): 2.84503
 senseamp_power (W): 1.536
 tagarray_power (W): 0.490764
Dtlb_power (W): 0.903238 (1.28%)
Level 2 Cache Power Consumption: 3.10298 (4.4%)
 decode_power (W): 0.19487
 wordline_power (W): 0.0430878
 bitline_power (W): 1.77274
 senseamp_power (W): 0.192
 tagarray_power (W): 0.900275
sim: loading EIO file: ../benchmarks/176.gcc.00-integrate-ref.eio.gz
sim: command line: ./sim-outorder -config ../configs/current.config ../benchmarks/176.gcc.00-integrate-ref.eio.gz 

sim: simulation started @ Mon Nov 23 19:37:28 2015, options follow:

sim-outorder: This simulator implements a very detailed out-of-order issue
superscalar processor with a two-level memory system and speculative
execution support.  This simulator is a performance simulator, tracking the
latency of all pipeline operations.

# -config                     # load configuration from a file
# -dumpconfig                 # dump configuration to a file
# -h                    false # print help message    
# -v                    false # verbose operation     
# -d                    false # enable debug message  
# -i                    false # start in Dlite debugger
-seed                       1 # random number generator seed (0 for timer seed)
# -q                    false # initialize and terminate immediately
# -chkpt               <null> # restore EIO trace execution from <fname>
# -redir:sim     ../results/04_01_2lbp/176.gcc.00-integrate-ref.eio.gz.out # redirect simulator output to file (non-interactive only)
# -redir:prog       /dev/null # redirect simulated program output to file
-nice                       0 # simulator scheduling priority
-freq            600000000.0000 # frequency             
-max:inst           100000000 # maximum number of inst's to execute
-fastfwd                    0 # number of insts skipped before timing starts
# -ptrace              <null> # generate pipetrace, i.e., <fname|stdout|stderr> <range>
-fetch:ifqsize              4 # instruction fetch queue size (in insts)
-fetch:mplat                3 # extra branch mis-prediction latency
-fetch:speed                1 # speed of front-end of machine relative to execution core
-bpred                   2lev # branch predictor type {nottaken|taken|perfect|bimod|2lev|comb}
-bpred:bimod     2048 # bimodal predictor config (<table size>)
-bpred:2lev      1 1024 8 0 # 2-level predictor config (<l1size> <l2size> <hist_size> <xor>)
-bpred:comb      1024 # combining predictor config (<meta_table_size>)
-bpred:ras                  8 # return address stack size (0 for no return stack)
-bpred:btb       512 4 # BTB config (<num_sets> <associativity>)
# -bpred:spec_update       <null> # speculative predictors update in {ID|WB} (default non-spec)
-decode:width               4 # instruction decode B/W (insts/cycle)
-issue:width                4 # instruction issue B/W (insts/cycle)
-issue:inorder          false # run pipeline with in-order issue
-issue:wrongpath         true # issue instructions down wrong execution paths
-commit:width               4 # instruction commit B/W (insts/cycle)
-ruu:size                  16 # register update unit (RUU) size
-lsq:size                   8 # load/store queue (LSQ) size
-cache:dl1       dl1:32:64:8:f # l1 data cache config, i.e., {<config>|none}
-cache:dl1lat               1 # l1 data cache hit latency (in cycles)
-cache:dl2       dl2:256:64:8:f # l2 data cache config, i.e., {<config>|none}
-cache:dl2lat               2 # l2 data cache hit latency (in cycles)
-cache:il1       il1:32:64:8:f # l1 inst cache config, i.e., {<config>|dl1|dl2|none}
-cache:il1lat               1 # l1 instruction cache hit latency (in cycles)
-cache:il2                dl2 # l2 instruction cache config, i.e., {<config>|dl2|none}
-cache:il2lat               2 # l2 instruction cache hit latency (in cycles)
-cache:flush            false # flush caches on system calls
-cache:icompress        false # convert 64-bit inst addresses to 32-bit inst equivalents
-mem:lat         103 1 # memory access latency (<first_chunk> <inter_chunk>)
-mem:width                  8 # memory access bus width (in bytes)
-tlb:itlb        itlb:16:4096:4:l # instruction TLB config, i.e., {<config>|none}
-tlb:dtlb        dtlb:32:4096:4:l # data TLB config, i.e., {<config>|none}
-tlb:lat                   30 # inst/data TLB miss latency (in cycles)
-res:ialu                   4 # total number of integer ALU's available
-res:imult                  1 # total number of integer multiplier/dividers available
-res:memport                2 # total number of memory system ports available (to CPU)
-res:fpalu                  4 # total number of floating point ALU's available
-res:fpmult                 1 # total number of floating point multiplier/dividers available
# -pcstat              <null> # profile stat(s) against text addr's (mult uses ok)
-bugcompat              false # operate in backward-compatible bugs mode (for testing only)

  Pipetrace range arguments are formatted as follows:

    {{@|#}<start>}:{{@|#|+}<end>}

  Both ends of the range are optional, if neither are specified, the entire
  execution is traced.  Ranges that start with a `@' designate an address
  range to be traced, those that start with an `#' designate a cycle count
  range.  All other range values represent an instruction count range.  The
  second argument, if specified with a `+', indicates a value relative
  to the first argument, e.g., 1000:+100 == 1000:1100.  Program symbols may
  be used in all contexts.

    Examples:   -ptrace FOO.trc #0:#1000
                -ptrace BAR.trc @2000:
                -ptrace BLAH.trc :1500
                -ptrace UXXE.trc :
                -ptrace FOOBAR.trc @main:+278

  Branch predictor configuration examples for 2-level predictor:
    Configurations:   N, M, W, X
      N   # entries in first level (# of shift register(s))
      W   width of shift register(s)
      M   # entries in 2nd level (# of counters, or other FSM)
      X   (yes-1/no-0) xor history and address for 2nd level index
    Sample predictors:
      GAg     : 1, W, 2^W, 0
      GAp     : 1, W, M (M > 2^W), 0
      PAg     : N, W, 2^W, 0
      PAp     : N, W, M (M == 2^(N+W)), 0
      gshare  : 1, W, 2^W, 1
  Predictor `comb' combines a bimodal and a 2-level predictor.

  The cache config parameter <config> has the following format:

    <name>:<nsets>:<bsize>:<assoc>:<repl>

    <name>   - name of the cache being defined
    <nsets>  - number of sets in the cache
    <bsize>  - block size of the cache
    <assoc>  - associativity of the cache
    <repl>   - block replacement strategy, 'l'-LRU, 'f'-FIFO, 'r'-random

    Examples:   -cache:dl1 dl1:4096:32:1:l
                -dtlb dtlb:128:4096:32:r

  Cache levels can be unified by pointing a level of the instruction cache
  hierarchy at the data cache hiearchy using the "dl1" and "dl2" cache
  configuration arguments.  Most sensible combinations are supported, e.g.,

    A unified l2 cache (il2 is pointed at dl2):
      -cache:il1 il1:128:64:1:l -cache:il2 dl2
      -cache:dl1 dl1:256:32:1:l -cache:dl2 ul2:1024:64:2:l

    Or, a fully unified cache hierarchy (il1 pointed at dl1):
      -cache:il1 dl1
      -cache:dl1 ul1:256:32:1:l -cache:dl2 ul2:1024:64:2:l



sim: ** starting performance simulation **

sim: ** simulation statistics **
sim_num_insn              100000000 # total number of instructions committed
sim_num_refs               37610714 # total number of loads and stores committed
sim_num_loads              29393633 # total number of loads committed
sim_num_stores         8217081.0000 # total number of stores committed
sim_num_branches           16137508 # total number of branches committed
sim_elapsed_time                114 # total simulation time in seconds
sim_inst_rate           877192.9825 # simulation speed (in insts/sec)
sim_total_insn            112134208 # total number of instructions executed
sim_total_refs             43288965 # total number of loads and stores executed
sim_total_loads            34583412 # total number of loads executed
sim_total_stores       8705553.0000 # total number of stores executed
sim_total_branches         17873785 # total number of branches executed
sim_cycle                  68139033 # total simulation time in cycles
sim_IPC                      1.4676 # instructions per cycle
sim_CPI                      0.6814 # cycles per instruction
sim_exec_BW                  1.6457 # total instructions (mis-spec + committed) per cycle
sim_IPB                      6.1967 # instruction per branch
IFQ_count                 195835488 # cumulative IFQ occupancy
IFQ_fcount                 44913964 # cumulative IFQ full count
ifq_occupancy                2.8741 # avg IFQ occupancy (insn's)
ifq_rate                     1.6457 # avg IFQ dispatch rate (insn/cycle)
ifq_latency                  1.7464 # avg IFQ occupant latency (cycle's)
ifq_full                     0.6592 # fraction of time (cycle's) IFQ was full
RUU_count                 717975130 # cumulative RUU occupancy
RUU_fcount                 18463764 # cumulative RUU full count
ruu_occupancy               10.5369 # avg RUU occupancy (insn's)
ruu_rate                     1.6457 # avg RUU dispatch rate (insn/cycle)
ruu_latency                  6.4028 # avg RUU occupant latency (cycle's)
ruu_full                     0.2710 # fraction of time (cycle's) RUU was full
LSQ_count                 292543904 # cumulative LSQ occupancy
LSQ_fcount                 14986454 # cumulative LSQ full count
lsq_occupancy                4.2933 # avg LSQ occupancy (insn's)
lsq_rate                     1.6457 # avg LSQ dispatch rate (insn/cycle)
lsq_latency                  2.6089 # avg LSQ occupant latency (cycle's)
lsq_full                     0.2199 # fraction of time (cycle's) LSQ was full
sim_slip                 1066883925 # total number of slip cycles
avg_sim_slip                10.6688 # the average slip between issue and retirement
bpred_2lev.lookups         18666143 # total number of bpred lookups
bpred_2lev.updates         16137505 # total number of updates
bpred_2lev.addr_hits       14090754 # total number of address-predicted hits
bpred_2lev.dir_hits        14277842 # total number of direction-predicted hits (includes addr-hits)
bpred_2lev.misses           1859663 # total number of misses
bpred_2lev.jr_hits           588834 # total number of address-predicted hits for JR's
bpred_2lev.jr_seen           717179 # total number of JR's seen
bpred_2lev.jr_non_ras_hits.PP        73339 # total number of address-predicted hits for non-RAS JR's
bpred_2lev.jr_non_ras_seen.PP       169405 # total number of non-RAS JR's seen
bpred_2lev.bpred_addr_rate    0.8732 # branch address-prediction rate (i.e., addr-hits/updates)
bpred_2lev.bpred_dir_rate    0.8848 # branch direction-prediction rate (i.e., all-hits/updates)
bpred_2lev.bpred_jr_rate    0.8210 # JR address-prediction rate (i.e., JR addr-hits/JRs seen)
bpred_2lev.bpred_jr_non_ras_rate.PP    0.4329 # non-RAS JR addr-pred rate (ie, non-RAS JR hits/JRs seen)
bpred_2lev.retstack_pushes       837165 # total number of address pushed onto ret-addr stack
bpred_2lev.retstack_pops       687052 # total number of address popped off of ret-addr stack
bpred_2lev.used_ras.PP       547774 # total number of RAS predictions used
bpred_2lev.ras_hits.PP       515495 # total number of RAS hits
bpred_2lev.ras_rate.PP    0.9411 # RAS prediction rate (i.e., RAS hits/used RAS)
il1.accesses              118020506 # total number of accesses
il1.hits                  116673148 # total number of hits
il1.misses                  1347358 # total number of misses
il1.replacements            1347102 # total number of replacements
il1.writebacks                    0 # total number of writebacks
il1.invalidations                 0 # total number of invalidations
il1.miss_rate                0.0114 # miss rate (i.e., misses/ref)
il1.repl_rate                0.0114 # replacement rate (i.e., repls/ref)
il1.wb_rate                  0.0000 # writeback rate (i.e., wrbks/ref)
il1.inv_rate                 0.0000 # invalidation rate (i.e., invs/ref)
dl1.accesses               39355490 # total number of accesses
dl1.hits                   39116015 # total number of hits
dl1.misses                   239475 # total number of misses
dl1.replacements             239219 # total number of replacements
dl1.writebacks                91596 # total number of writebacks
dl1.invalidations                 0 # total number of invalidations
dl1.miss_rate                0.0061 # miss rate (i.e., misses/ref)
dl1.repl_rate                0.0061 # replacement rate (i.e., repls/ref)
dl1.wb_rate                  0.0023 # writeback rate (i.e., wrbks/ref)
dl1.inv_rate                 0.0000 # invalidation rate (i.e., invs/ref)
dl2.accesses                1678429 # total number of accesses
dl2.hits                    1468910 # total number of hits
dl2.misses                   209519 # total number of misses
dl2.replacements             207471 # total number of replacements
dl2.writebacks                50650 # total number of writebacks
dl2.invalidations                 0 # total number of invalidations
dl2.miss_rate                0.1248 # miss rate (i.e., misses/ref)
dl2.repl_rate                0.1236 # replacement rate (i.e., repls/ref)
dl2.wb_rate                  0.0302 # writeback rate (i.e., wrbks/ref)
dl2.inv_rate                 0.0000 # invalidation rate (i.e., invs/ref)
itlb.accesses             118020506 # total number of accesses
itlb.hits                 118001495 # total number of hits
itlb.misses                   19011 # total number of misses
itlb.replacements             18947 # total number of replacements
itlb.writebacks                   0 # total number of writebacks
itlb.invalidations                0 # total number of invalidations
itlb.miss_rate               0.0002 # miss rate (i.e., misses/ref)
itlb.repl_rate               0.0002 # replacement rate (i.e., repls/ref)
itlb.wb_rate                 0.0000 # writeback rate (i.e., wrbks/ref)
itlb.inv_rate                0.0000 # invalidation rate (i.e., invs/ref)
dtlb.accesses              39439041 # total number of accesses
dtlb.hits                  39430969 # total number of hits
dtlb.misses                    8072 # total number of misses
dtlb.replacements              7944 # total number of replacements
dtlb.writebacks                   0 # total number of writebacks
dtlb.invalidations                0 # total number of invalidations
dtlb.miss_rate               0.0002 # miss rate (i.e., misses/ref)
dtlb.repl_rate               0.0002 # replacement rate (i.e., repls/ref)
dtlb.wb_rate                 0.0000 # writeback rate (i.e., wrbks/ref)
dtlb.inv_rate                0.0000 # invalidation rate (i.e., invs/ref)
rename_power           28479764.0883 # total power usage of rename unit
bpred_power            194175049.3782 # total power usage of bpred unit
window_power           150200193.5413 # total power usage of instruction window
lsq_power              65630153.0441 # total power usage of load/store queue
regfile_power          243424794.4539 # total power usage of arch. regfile
icache_power           206635914.2926 # total power usage of icache
dcache_power           438726504.7279 # total power usage of dcache
dcache2_power          211433836.5132 # total power usage of dcache2
alu_power              1290633378.0942 # total power usage of alu
falu_power             973096593.6659 # total power usage of falu
resultbus_power        156552350.6421 # total power usage of resultbus
clock_power            1820748812.3822 # total power usage of clock
avg_rename_power             0.4180 # avg power usage of rename unit
avg_bpred_power              2.8497 # avg power usage of bpred unit
avg_window_power             2.2043 # avg power usage of instruction window
avg_lsq_power                0.9632 # avg power usage of lsq
avg_regfile_power            3.5725 # avg power usage of arch. regfile
avg_icache_power             3.0326 # avg power usage of icache
avg_dcache_power             6.4387 # avg power usage of dcache
avg_dcache2_power            3.1030 # avg power usage of dcache2
avg_alu_power               18.9412 # avg power usage of alu
avg_falu_power              14.2810 # avg power usage of falu
avg_resultbus_power          2.2975 # avg power usage of resultbus
avg_clock_power             26.7211 # avg power usage of clock
fetch_stage_power      400810963.6707 # total power usage of fetch stage
dispatch_stage_power   28479764.0883 # total power usage of dispatch stage
issue_stage_power      2313176416.5628 # total power usage of issue stage
avg_fetch_power              5.8823 # average power of fetch unit per cycle
avg_dispatch_power           0.4180 # average power of dispatch unit per cycle
avg_issue_power             33.9479 # average power of issue unit per cycle
total_power            4806640751.1580 # total power per cycle
avg_total_power_cycle       70.5417 # average total power per cycle
avg_total_power_cycle_nofp_nod2      53.1576 # average total power per cycle
avg_total_power_insn        42.8651 # average total power per insn
avg_total_power_insn_nofp_nod2      32.3016 # average total power per insn
rename_power_cc1       15571779.8506 # total power usage of rename unit_cc1
bpred_power_cc1        43821168.8314 # total power usage of bpred unit_cc1
window_power_cc1       106795236.8230 # total power usage of instruction window_cc1
lsq_power_cc1          14296707.6752 # total power usage of lsq_cc1
regfile_power_cc1      135469573.5599 # total power usage of arch. regfile_cc1
icache_power_cc1       120323089.3012 # total power usage of icache_cc1
dcache_power_cc1       161786525.5076 # total power usage of dcache_cc1
dcache2_power_cc1      4880861.4464 # total power usage of dcache2_cc1
alu_power_cc1          186826181.7902 # total power usage of alu_cc1
resultbus_power_cc1    91608215.2149 # total power usage of resultbus_cc1
clock_power_cc1        633780249.4584 # total power usage of clock_cc1
avg_rename_power_cc1         0.2285 # avg power usage of rename unit_cc1
avg_bpred_power_cc1          0.6431 # avg power usage of bpred unit_cc1
avg_window_power_cc1         1.5673 # avg power usage of instruction window_cc1
avg_lsq_power_cc1            0.2098 # avg power usage of lsq_cc1
avg_regfile_power_cc1        1.9881 # avg power usage of arch. regfile_cc1
avg_icache_power_cc1         1.7658 # avg power usage of icache_cc1
avg_dcache_power_cc1         2.3744 # avg power usage of dcache_cc1
avg_dcache2_power_cc1        0.0716 # avg power usage of dcache2_cc1
avg_alu_power_cc1            2.7418 # avg power usage of alu_cc1
avg_resultbus_power_cc1       1.3444 # avg power usage of resultbus_cc1
avg_clock_power_cc1          9.3013 # avg power usage of clock_cc1
fetch_stage_power_cc1  164144258.1326 # total power usage of fetch stage_cc1
dispatch_stage_power_cc1 15571779.8506 # total power usage of dispatch stage_cc1
issue_stage_power_cc1  566193728.4573 # total power usage of issue stage_cc1
avg_fetch_power_cc1          2.4090 # average power of fetch unit per cycle_cc1
avg_dispatch_power_cc1       0.2285 # average power of dispatch unit per cycle_cc1
avg_issue_power_cc1          8.3094 # average power of issue unit per cycle_cc1
total_power_cycle_cc1  1515159589.4588 # total power per cycle_cc1
avg_total_power_cycle_cc1      22.2363 # average total power per cycle_cc1
avg_total_power_insn_cc1      13.5120 # average total power per insn_cc1
rename_power_cc2       11717057.2048 # total power usage of rename unit_cc2
bpred_power_cc2        22993434.8716 # total power usage of bpred unit_cc2
window_power_cc2       91406251.6645 # total power usage of instruction window_cc2
lsq_power_cc2          10302382.1507 # total power usage of lsq_cc2
regfile_power_cc2      41114351.6457 # total power usage of arch. regfile_cc2
icache_power_cc2       120323089.3012 # total power usage of icache_cc2
dcache_power_cc2       126699013.7877 # total power usage of dcache_cc2
dcache2_power_cc2      2604063.1003 # total power usage of dcache2_cc2
alu_power_cc2          123270631.9110 # total power usage of alu_cc2
resultbus_power_cc2    64468564.6755 # total power usage of resultbus_cc2
clock_power_cc2        457207510.1417 # total power usage of clock_cc2
avg_rename_power_cc2         0.1720 # avg power usage of rename unit_cc2
avg_bpred_power_cc2          0.3374 # avg power usage of bpred unit_cc2
avg_window_power_cc2         1.3415 # avg power usage of instruction window_cc2
avg_lsq_power_cc2            0.1512 # avg power usage of instruction lsq_cc2
avg_regfile_power_cc2        0.6034 # avg power usage of arch. regfile_cc2
avg_icache_power_cc2         1.7658 # avg power usage of icache_cc2
avg_dcache_power_cc2         1.8594 # avg power usage of dcache_cc2
avg_dcache2_power_cc2        0.0382 # avg power usage of dcache2_cc2
avg_alu_power_cc2            1.8091 # avg power usage of alu_cc2
avg_resultbus_power_cc2       0.9461 # avg power usage of resultbus_cc2
avg_clock_power_cc2          6.7099 # avg power usage of clock_cc2
fetch_stage_power_cc2  143316524.1727 # total power usage of fetch stage_cc2
dispatch_stage_power_cc2 11717057.2048 # total power usage of dispatch stage_cc2
issue_stage_power_cc2  418750907.2897 # total power usage of issue stage_cc2
avg_fetch_power_cc2          2.1033 # average power of fetch unit per cycle_cc2
avg_dispatch_power_cc2       0.1720 # average power of dispatch unit per cycle_cc2
avg_issue_power_cc2          6.1455 # average power of issue unit per cycle_cc2
total_power_cycle_cc2  1072106350.4547 # total power per cycle_cc2
avg_total_power_cycle_cc2      15.7341 # average total power per cycle_cc2
avg_total_power_insn_cc2       9.5609 # average total power per insn_cc2
rename_power_cc3       13007855.6200 # total power usage of rename unit_cc3
bpred_power_cc3        38030154.8800 # total power usage of bpred unit_cc3
window_power_cc3       95996109.0215 # total power usage of instruction window_cc3
lsq_power_cc3          15438671.9001 # total power usage of lsq_cc3
regfile_power_cc3      50329792.4517 # total power usage of arch. regfile_cc3
icache_power_cc3       128954371.7380 # total power usage of icache_cc3
dcache_power_cc3       155025907.1827 # total power usage of dcache_cc3
dcache2_power_cc3      23260495.0444 # total power usage of dcache2_cc3
alu_power_cc3          233651351.0638 # total power usage of alu_cc3
resultbus_power_cc3    70353429.0334 # total power usage of resultbus_cc3
clock_power_cc3        575515241.0845 # total power usage of clock_cc3
avg_rename_power_cc3         0.1909 # avg power usage of rename unit_cc3
avg_bpred_power_cc3          0.5581 # avg power usage of bpred unit_cc3
avg_window_power_cc3         1.4088 # avg power usage of instruction window_cc3
avg_lsq_power_cc3            0.2266 # avg power usage of instruction lsq_cc3
avg_regfile_power_cc3        0.7386 # avg power usage of arch. regfile_cc3
avg_icache_power_cc3         1.8925 # avg power usage of icache_cc3
avg_dcache_power_cc3         2.2751 # avg power usage of dcache_cc3
avg_dcache2_power_cc3        0.3414 # avg power usage of dcache2_cc3
avg_alu_power_cc3            3.4290 # avg power usage of alu_cc3
avg_resultbus_power_cc3       1.0325 # avg power usage of resultbus_cc3
avg_clock_power_cc3          8.4462 # avg power usage of clock_cc3
fetch_stage_power_cc3  166984526.6180 # total power usage of fetch stage_cc3
dispatch_stage_power_cc3 13007855.6200 # total power usage of dispatch stage_cc3
issue_stage_power_cc3  593725963.2459 # total power usage of issue stage_cc3
avg_fetch_power_cc3          2.4506 # average power of fetch unit per cycle_cc3
avg_dispatch_power_cc3       0.1909 # average power of dispatch unit per cycle_cc3
avg_issue_power_cc3          8.7134 # average power of issue unit per cycle_cc3
total_power_cycle_cc3  1399563379.0201 # total power per cycle_cc3
avg_total_power_cycle_cc3      20.5398 # average total power per cycle_cc3
avg_total_power_insn_cc3      12.4811 # average total power per insn_cc3
total_rename_access       112134208 # total number accesses of rename unit
total_bpred_access         16137505 # total number accesses of bpred unit
total_window_access       423212348 # total number accesses of instruction window
total_lsq_access           39674045 # total number accesses of load/store queue
total_regfile_access      154923422 # total number accesses of arch. regfile
total_icache_access       118400110 # total number accesses of icache
total_dcache_access        39355490 # total number accesses of dcache
total_dcache2_access        1678429 # total number accesses of dcache2
total_alu_access          105808382 # total number accesses of alu
total_resultbus_access    119721759 # total number accesses of resultbus
avg_rename_access            1.6457 # avg number accesses of rename unit
avg_bpred_access             0.2368 # avg number accesses of bpred unit
avg_window_access            6.2110 # avg number accesses of instruction window
avg_lsq_access               0.5823 # avg number accesses of lsq
avg_regfile_access           2.2736 # avg number accesses of arch. regfile
avg_icache_access            1.7376 # avg number accesses of icache
avg_dcache_access            0.5776 # avg number accesses of dcache
avg_dcache2_access           0.0246 # avg number accesses of dcache2
avg_alu_access               1.5528 # avg number accesses of alu
avg_resultbus_access         1.7570 # avg number accesses of resultbus
max_rename_access                 4 # max number accesses of rename unit
max_bpred_access                  3 # max number accesses of bpred unit
max_window_access                18 # max number accesses of instruction window
max_lsq_access                    6 # max number accesses of load/store queue
max_regfile_access               12 # max number accesses of arch. regfile
max_icache_access                 4 # max number accesses of icache
max_dcache_access                 4 # max number accesses of dcache
max_dcache2_access                5 # max number accesses of dcache2
max_alu_access                    4 # max number accesses of alu
max_resultbus_access              8 # max number accesses of resultbus
max_cycle_power_cc1         44.5995 # maximum cycle power usage of cc1
max_cycle_power_cc2         34.9706 # maximum cycle power usage of cc2
max_cycle_power_cc3         38.0788 # maximum cycle power usage of cc3
sim_invalid_addrs                 0 # total non-speculative bogus addresses seen (debug var)
ld_text_base           0x0120000000 # program text (code) segment base
ld_text_size                1990656 # program text (code) size in bytes
ld_data_base           0x0140000000 # program initialized data segment base
ld_data_size                 306320 # program init'ed `.data' and uninit'ed `.bss' size in bytes
ld_stack_base          0x011ff9b000 # program stack segment base (highest address in stack)
ld_stack_size                 16384 # program initial stack size
ld_prog_entry          0x012012858c # program entry point (initial PC)
ld_environ_base        0x011ff83680 # program environment base address address
ld_target_big_endian              0 # target executable endian-ness, non-zero if big endian
mem.page_count                  822 # total number of pages allocated
mem.page_mem                  6576k # total size of memory pages allocated
mem.ptab_misses               56185 # total first level page table misses
mem.ptab_accesses         686408710 # total page table accesses
mem.ptab_miss_rate           0.0001 # first level page table miss rate

