sim-outorder: SimpleScalar/Alpha Tool Set version 3.0 of August, 2003.
Copyright (c) 1994-2003 by Todd M. Austin, Ph.D. and SimpleScalar, LLC.
All Rights Reserved. This version of SimpleScalar is licensed for academic
non-commercial use.  No portion of this work may be used by any commercial
entity, or for any commercial purpose, without the prior written permission
of SimpleScalar, LLC (info@simplescalar.com).


Processor Parameters:
Issue Width: 4
Window Size: 16
Number of Virtual Registers: 32
Number of Physical Registers: 16
Datapath Width: 64
Total Power Consumption: 72.5417
Branch Predictor Power Consumption: 2.84969  (4.04%)
 branch target buffer power (W): 2.49493
 local predict power (W): 0.0879711
 global predict power (W): 0.0996078
 chooser power (W): 0.0702439
 RAS power (W): 0.0969383
Rename Logic Power Consumption: 0.417965  (0.593%)
 Instruction Decode Power (W): 0.0159915
 RAT decode_power (W): 0.113514
 RAT wordline_power (W): 0.0307815
 RAT bitline_power (W): 0.246771
 DCL Comparators (W): 0.0109075
Instruction Window Power Consumption: 2.20432  (3.12%)
 tagdrive (W): 0.0943488
 tagmatch (W): 0.033695
 Selection Logic (W): 0.0134217
 decode_power (W): 0.0532503
 wordline_power (W): 0.0844643
 bitline_power (W): 1.92514
Load/Store Queue Power Consumption: 0.96318  (1.37%)
 tagdrive (W): 0.457232
 tagmatch (W): 0.100774
 decode_power (W): 0.00799577
 wordline_power (W): 0.0150119
 bitline_power (W): 0.382166
Arch. Register File Power Consumption: 3.57247  (5.06%)
 decode_power (W): 0.113514
 wordline_power (W): 0.0844643
 bitline_power (W): 3.37449
Result Bus Power Consumption: 2.29754  (3.26%)
Total Clock Power: 26.7211  (37.9%)
Int ALU Power: 4.66013  (6.61%)
FP ALU Power: 14.281  (20.2%)
Instruction Cache Power Consumption: 2.76773  (3.92%)
 decode_power (W): 0.151353
 wordline_power (W): 0.180479
 bitline_power (W): 1.42251
 senseamp_power (W): 0.768
 tagarray_power (W): 0.245382
Itlb_power (W): 0.264834 (0.375%)
Data Cache Power Consumption: 5.53546  (7.85%)
 decode_power (W): 0.302705
 wordline_power (W): 0.360958
 bitline_power (W): 2.84503
 senseamp_power (W): 1.536
 tagarray_power (W): 0.490764
Dtlb_power (W): 0.903238 (1.28%)
Level 2 Cache Power Consumption: 3.10298 (4.4%)
 decode_power (W): 0.19487
 wordline_power (W): 0.0430878
 bitline_power (W): 1.77274
 senseamp_power (W): 0.192
 tagarray_power (W): 0.900275
sim: loading EIO file: ../benchmarks/176.gcc.00-200-ref.eio.gz
sim: command line: ./sim-outorder -config ../configs/current.config ../benchmarks/176.gcc.00-200-ref.eio.gz 

sim: simulation started @ Mon Nov 23 19:37:32 2015, options follow:

sim-outorder: This simulator implements a very detailed out-of-order issue
superscalar processor with a two-level memory system and speculative
execution support.  This simulator is a performance simulator, tracking the
latency of all pipeline operations.

# -config                     # load configuration from a file
# -dumpconfig                 # dump configuration to a file
# -h                    false # print help message    
# -v                    false # verbose operation     
# -d                    false # enable debug message  
# -i                    false # start in Dlite debugger
-seed                       1 # random number generator seed (0 for timer seed)
# -q                    false # initialize and terminate immediately
# -chkpt               <null> # restore EIO trace execution from <fname>
# -redir:sim     ../results/04_01_2lbp/176.gcc.00-200-ref.eio.gz.out # redirect simulator output to file (non-interactive only)
# -redir:prog       /dev/null # redirect simulated program output to file
-nice                       0 # simulator scheduling priority
-freq            600000000.0000 # frequency             
-max:inst           100000000 # maximum number of inst's to execute
-fastfwd                    0 # number of insts skipped before timing starts
# -ptrace              <null> # generate pipetrace, i.e., <fname|stdout|stderr> <range>
-fetch:ifqsize              4 # instruction fetch queue size (in insts)
-fetch:mplat                3 # extra branch mis-prediction latency
-fetch:speed                1 # speed of front-end of machine relative to execution core
-bpred                   2lev # branch predictor type {nottaken|taken|perfect|bimod|2lev|comb}
-bpred:bimod     2048 # bimodal predictor config (<table size>)
-bpred:2lev      1 1024 8 0 # 2-level predictor config (<l1size> <l2size> <hist_size> <xor>)
-bpred:comb      1024 # combining predictor config (<meta_table_size>)
-bpred:ras                  8 # return address stack size (0 for no return stack)
-bpred:btb       512 4 # BTB config (<num_sets> <associativity>)
# -bpred:spec_update       <null> # speculative predictors update in {ID|WB} (default non-spec)
-decode:width               4 # instruction decode B/W (insts/cycle)
-issue:width                4 # instruction issue B/W (insts/cycle)
-issue:inorder          false # run pipeline with in-order issue
-issue:wrongpath         true # issue instructions down wrong execution paths
-commit:width               4 # instruction commit B/W (insts/cycle)
-ruu:size                  16 # register update unit (RUU) size
-lsq:size                   8 # load/store queue (LSQ) size
-cache:dl1       dl1:32:64:8:f # l1 data cache config, i.e., {<config>|none}
-cache:dl1lat               1 # l1 data cache hit latency (in cycles)
-cache:dl2       dl2:256:64:8:f # l2 data cache config, i.e., {<config>|none}
-cache:dl2lat               2 # l2 data cache hit latency (in cycles)
-cache:il1       il1:32:64:8:f # l1 inst cache config, i.e., {<config>|dl1|dl2|none}
-cache:il1lat               1 # l1 instruction cache hit latency (in cycles)
-cache:il2                dl2 # l2 instruction cache config, i.e., {<config>|dl2|none}
-cache:il2lat               2 # l2 instruction cache hit latency (in cycles)
-cache:flush            false # flush caches on system calls
-cache:icompress        false # convert 64-bit inst addresses to 32-bit inst equivalents
-mem:lat         103 1 # memory access latency (<first_chunk> <inter_chunk>)
-mem:width                  8 # memory access bus width (in bytes)
-tlb:itlb        itlb:16:4096:4:l # instruction TLB config, i.e., {<config>|none}
-tlb:dtlb        dtlb:32:4096:4:l # data TLB config, i.e., {<config>|none}
-tlb:lat                   30 # inst/data TLB miss latency (in cycles)
-res:ialu                   4 # total number of integer ALU's available
-res:imult                  1 # total number of integer multiplier/dividers available
-res:memport                2 # total number of memory system ports available (to CPU)
-res:fpalu                  4 # total number of floating point ALU's available
-res:fpmult                 1 # total number of floating point multiplier/dividers available
# -pcstat              <null> # profile stat(s) against text addr's (mult uses ok)
-bugcompat              false # operate in backward-compatible bugs mode (for testing only)

  Pipetrace range arguments are formatted as follows:

    {{@|#}<start>}:{{@|#|+}<end>}

  Both ends of the range are optional, if neither are specified, the entire
  execution is traced.  Ranges that start with a `@' designate an address
  range to be traced, those that start with an `#' designate a cycle count
  range.  All other range values represent an instruction count range.  The
  second argument, if specified with a `+', indicates a value relative
  to the first argument, e.g., 1000:+100 == 1000:1100.  Program symbols may
  be used in all contexts.

    Examples:   -ptrace FOO.trc #0:#1000
                -ptrace BAR.trc @2000:
                -ptrace BLAH.trc :1500
                -ptrace UXXE.trc :
                -ptrace FOOBAR.trc @main:+278

  Branch predictor configuration examples for 2-level predictor:
    Configurations:   N, M, W, X
      N   # entries in first level (# of shift register(s))
      W   width of shift register(s)
      M   # entries in 2nd level (# of counters, or other FSM)
      X   (yes-1/no-0) xor history and address for 2nd level index
    Sample predictors:
      GAg     : 1, W, 2^W, 0
      GAp     : 1, W, M (M > 2^W), 0
      PAg     : N, W, 2^W, 0
      PAp     : N, W, M (M == 2^(N+W)), 0
      gshare  : 1, W, 2^W, 1
  Predictor `comb' combines a bimodal and a 2-level predictor.

  The cache config parameter <config> has the following format:

    <name>:<nsets>:<bsize>:<assoc>:<repl>

    <name>   - name of the cache being defined
    <nsets>  - number of sets in the cache
    <bsize>  - block size of the cache
    <assoc>  - associativity of the cache
    <repl>   - block replacement strategy, 'l'-LRU, 'f'-FIFO, 'r'-random

    Examples:   -cache:dl1 dl1:4096:32:1:l
                -dtlb dtlb:128:4096:32:r

  Cache levels can be unified by pointing a level of the instruction cache
  hierarchy at the data cache hiearchy using the "dl1" and "dl2" cache
  configuration arguments.  Most sensible combinations are supported, e.g.,

    A unified l2 cache (il2 is pointed at dl2):
      -cache:il1 il1:128:64:1:l -cache:il2 dl2
      -cache:dl1 dl1:256:32:1:l -cache:dl2 ul2:1024:64:2:l

    Or, a fully unified cache hierarchy (il1 pointed at dl1):
      -cache:il1 dl1
      -cache:dl1 ul1:256:32:1:l -cache:dl2 ul2:1024:64:2:l



sim: ** starting performance simulation **

sim: ** simulation statistics **
sim_num_insn              100000000 # total number of instructions committed
sim_num_refs               42798694 # total number of loads and stores committed
sim_num_loads              32645610 # total number of loads committed
sim_num_stores         10153084.0000 # total number of stores committed
sim_num_branches           14873758 # total number of branches committed
sim_elapsed_time                139 # total simulation time in seconds
sim_inst_rate           719424.4604 # simulation speed (in insts/sec)
sim_total_insn            116669508 # total number of instructions executed
sim_total_refs             50607949 # total number of loads and stores executed
sim_total_loads            39677149 # total number of loads executed
sim_total_stores       10930800.0000 # total number of stores executed
sim_total_branches         17477632 # total number of branches executed
sim_cycle                  75884580 # total simulation time in cycles
sim_IPC                      1.3178 # instructions per cycle
sim_CPI                      0.7588 # cycles per instruction
sim_exec_BW                  1.5375 # total instructions (mis-spec + committed) per cycle
sim_IPB                      6.7233 # instruction per branch
IFQ_count                 209794607 # cumulative IFQ occupancy
IFQ_fcount                 48231228 # cumulative IFQ full count
ifq_occupancy                2.7647 # avg IFQ occupancy (insn's)
ifq_rate                     1.5375 # avg IFQ dispatch rate (insn/cycle)
ifq_latency                  1.7982 # avg IFQ occupant latency (cycle's)
ifq_full                     0.6356 # fraction of time (cycle's) IFQ was full
RUU_count                 749394706 # cumulative RUU occupancy
RUU_fcount                 18563269 # cumulative RUU full count
ruu_occupancy                9.8755 # avg RUU occupancy (insn's)
ruu_rate                     1.5375 # avg RUU dispatch rate (insn/cycle)
ruu_latency                  6.4232 # avg RUU occupant latency (cycle's)
ruu_full                     0.2446 # fraction of time (cycle's) RUU was full
LSQ_count                 327036573 # cumulative LSQ occupancy
LSQ_fcount                 17442988 # cumulative LSQ full count
lsq_occupancy                4.3097 # avg LSQ occupancy (insn's)
lsq_rate                     1.5375 # avg LSQ dispatch rate (insn/cycle)
lsq_latency                  2.8031 # avg LSQ occupant latency (cycle's)
lsq_full                     0.2299 # fraction of time (cycle's) LSQ was full
sim_slip                 1108977936 # total number of slip cycles
avg_sim_slip                11.0898 # the average slip between issue and retirement
bpred_2lev.lookups         18472547 # total number of bpred lookups
bpred_2lev.updates         14873755 # total number of updates
bpred_2lev.addr_hits       12108551 # total number of address-predicted hits
bpred_2lev.dir_hits        12357449 # total number of direction-predicted hits (includes addr-hits)
bpred_2lev.misses           2516306 # total number of misses
bpred_2lev.jr_hits          1086462 # total number of address-predicted hits for JR's
bpred_2lev.jr_seen          1301932 # total number of JR's seen
bpred_2lev.jr_non_ras_hits.PP       140762 # total number of address-predicted hits for non-RAS JR's
bpred_2lev.jr_non_ras_seen.PP       273107 # total number of non-RAS JR's seen
bpred_2lev.bpred_addr_rate    0.8141 # branch address-prediction rate (i.e., addr-hits/updates)
bpred_2lev.bpred_dir_rate    0.8308 # branch direction-prediction rate (i.e., all-hits/updates)
bpred_2lev.bpred_jr_rate    0.8345 # JR address-prediction rate (i.e., JR addr-hits/JRs seen)
bpred_2lev.bpred_jr_non_ras_rate.PP    0.5154 # non-RAS JR addr-pred rate (ie, non-RAS JR hits/JRs seen)
bpred_2lev.retstack_pushes      1550672 # total number of address pushed onto ret-addr stack
bpred_2lev.retstack_pops      1253095 # total number of address popped off of ret-addr stack
bpred_2lev.used_ras.PP      1028825 # total number of RAS predictions used
bpred_2lev.ras_hits.PP       945700 # total number of RAS hits
bpred_2lev.ras_rate.PP    0.9192 # RAS prediction rate (i.e., RAS hits/used RAS)
il1.accesses              124620041 # total number of accesses
il1.hits                  122910449 # total number of hits
il1.misses                  1709592 # total number of misses
il1.replacements            1709336 # total number of replacements
il1.writebacks                    0 # total number of writebacks
il1.invalidations                 0 # total number of invalidations
il1.miss_rate                0.0137 # miss rate (i.e., misses/ref)
il1.repl_rate                0.0137 # replacement rate (i.e., repls/ref)
il1.wb_rate                  0.0000 # writeback rate (i.e., wrbks/ref)
il1.inv_rate                 0.0000 # invalidation rate (i.e., invs/ref)
dl1.accesses               45265019 # total number of accesses
dl1.hits                   44725377 # total number of hits
dl1.misses                   539642 # total number of misses
dl1.replacements             539386 # total number of replacements
dl1.writebacks               291234 # total number of writebacks
dl1.invalidations                 0 # total number of invalidations
dl1.miss_rate                0.0119 # miss rate (i.e., misses/ref)
dl1.repl_rate                0.0119 # replacement rate (i.e., repls/ref)
dl1.wb_rate                  0.0064 # writeback rate (i.e., wrbks/ref)
dl1.inv_rate                 0.0000 # invalidation rate (i.e., invs/ref)
dl2.accesses                2540468 # total number of accesses
dl2.hits                    2192540 # total number of hits
dl2.misses                   347928 # total number of misses
dl2.replacements             345880 # total number of replacements
dl2.writebacks               192337 # total number of writebacks
dl2.invalidations                 0 # total number of invalidations
dl2.miss_rate                0.1370 # miss rate (i.e., misses/ref)
dl2.repl_rate                0.1361 # replacement rate (i.e., repls/ref)
dl2.wb_rate                  0.0757 # writeback rate (i.e., wrbks/ref)
dl2.inv_rate                 0.0000 # invalidation rate (i.e., invs/ref)
itlb.accesses             124620041 # total number of accesses
itlb.hits                 124597466 # total number of hits
itlb.misses                   22575 # total number of misses
itlb.replacements             22511 # total number of replacements
itlb.writebacks                   0 # total number of writebacks
itlb.invalidations                0 # total number of invalidations
itlb.miss_rate               0.0002 # miss rate (i.e., misses/ref)
itlb.repl_rate               0.0002 # replacement rate (i.e., repls/ref)
itlb.wb_rate                 0.0000 # writeback rate (i.e., wrbks/ref)
itlb.inv_rate                0.0000 # invalidation rate (i.e., invs/ref)
dtlb.accesses              45426175 # total number of accesses
dtlb.hits                  45406263 # total number of hits
dtlb.misses                   19912 # total number of misses
dtlb.replacements             19784 # total number of replacements
dtlb.writebacks                   0 # total number of writebacks
dtlb.invalidations                0 # total number of invalidations
dtlb.miss_rate               0.0004 # miss rate (i.e., misses/ref)
dtlb.repl_rate               0.0004 # replacement rate (i.e., repls/ref)
dtlb.wb_rate                 0.0000 # writeback rate (i.e., wrbks/ref)
dtlb.inv_rate                0.0000 # invalidation rate (i.e., invs/ref)
rename_power           31717135.4095 # total power usage of rename unit
bpred_power            216247449.0541 # total power usage of bpred unit
window_power           167273853.1924 # total power usage of instruction window
lsq_power              73090508.9312 # total power usage of load/store queue
regfile_power          271095544.9757 # total power usage of arch. regfile
icache_power           230124774.0083 # total power usage of icache
dcache_power           488597725.5755 # total power usage of dcache
dcache2_power          235468088.9191 # total power usage of dcache2
alu_power              1437343142.8612 # total power usage of alu
falu_power             1083711098.6129 # total power usage of falu
resultbus_power        174348077.1574 # total power usage of resultbus
clock_power            2027718223.4616 # total power usage of clock
avg_rename_power             0.4180 # avg power usage of rename unit
avg_bpred_power              2.8497 # avg power usage of bpred unit
avg_window_power             2.2043 # avg power usage of instruction window
avg_lsq_power                0.9632 # avg power usage of lsq
avg_regfile_power            3.5725 # avg power usage of arch. regfile
avg_icache_power             3.0326 # avg power usage of icache
avg_dcache_power             6.4387 # avg power usage of dcache
avg_dcache2_power            3.1030 # avg power usage of dcache2
avg_alu_power               18.9412 # avg power usage of alu
avg_falu_power              14.2810 # avg power usage of falu
avg_resultbus_power          2.2975 # avg power usage of resultbus
avg_clock_power             26.7211 # avg power usage of clock
fetch_stage_power      446372223.0624 # total power usage of fetch stage
dispatch_stage_power   31717135.4095 # total power usage of dispatch stage
issue_stage_power      2576121396.6366 # total power usage of issue stage
avg_fetch_power              5.8823 # average power of fetch unit per cycle
avg_dispatch_power           0.4180 # average power of dispatch unit per cycle
avg_issue_power             33.9479 # average power of issue unit per cycle
total_power            5353024523.5458 # total power per cycle
avg_total_power_cycle       70.5417 # average total power per cycle
avg_total_power_cycle_nofp_nod2      53.1576 # average total power per cycle
avg_total_power_insn        45.8819 # average total power per insn
avg_total_power_insn_nofp_nod2      34.5750 # average total power per insn
rename_power_cc1       16881916.0746 # total power usage of rename unit_cc1
bpred_power_cc1        38073199.4509 # total power usage of bpred unit_cc1
window_power_cc1       115507977.6814 # total power usage of instruction window_cc1
lsq_power_cc1          16083986.9412 # total power usage of lsq_cc1
regfile_power_cc1      148352161.6058 # total power usage of arch. regfile_cc1
icache_power_cc1       132571362.8324 # total power usage of icache_cc1
dcache_power_cc1       187838731.3265 # total power usage of dcache_cc1
dcache2_power_cc1      6944638.8855 # total power usage of dcache2_cc1
alu_power_cc1          205268201.8425 # total power usage of alu_cc1
resultbus_power_cc1    100421417.2454 # total power usage of resultbus_cc1
clock_power_cc1        633789822.2932 # total power usage of clock_cc1
avg_rename_power_cc1         0.2225 # avg power usage of rename unit_cc1
avg_bpred_power_cc1          0.5017 # avg power usage of bpred unit_cc1
avg_window_power_cc1         1.5222 # avg power usage of instruction window_cc1
avg_lsq_power_cc1            0.2120 # avg power usage of lsq_cc1
avg_regfile_power_cc1        1.9550 # avg power usage of arch. regfile_cc1
avg_icache_power_cc1         1.7470 # avg power usage of icache_cc1
avg_dcache_power_cc1         2.4753 # avg power usage of dcache_cc1
avg_dcache2_power_cc1        0.0915 # avg power usage of dcache2_cc1
avg_alu_power_cc1            2.7050 # avg power usage of alu_cc1
avg_resultbus_power_cc1       1.3233 # avg power usage of resultbus_cc1
avg_clock_power_cc1          8.3520 # avg power usage of clock_cc1
fetch_stage_power_cc1  170644562.2833 # total power usage of fetch stage_cc1
dispatch_stage_power_cc1 16881916.0746 # total power usage of dispatch stage_cc1
issue_stage_power_cc1  632064953.9226 # total power usage of issue stage_cc1
avg_fetch_power_cc1          2.2487 # average power of fetch unit per cycle_cc1
avg_dispatch_power_cc1       0.2225 # average power of dispatch unit per cycle_cc1
avg_issue_power_cc1          8.3293 # average power of issue unit per cycle_cc1
total_power_cycle_cc1  1601733416.1795 # total power per cycle_cc1
avg_total_power_cycle_cc1      21.1075 # average total power per cycle_cc1
avg_total_power_insn_cc1      13.7288 # average total power per insn_cc1
rename_power_cc2       12190956.9227 # total power usage of rename unit_cc2
bpred_power_cc2        21192787.6627 # total power usage of bpred unit_cc2
window_power_cc2       94895086.0086 # total power usage of instruction window_cc2
lsq_power_cc2          11743855.3359 # total power usage of lsq_cc2
regfile_power_cc2      40562665.8050 # total power usage of arch. regfile_cc2
icache_power_cc2       132571362.8324 # total power usage of icache_cc2
dcache_power_cc2       145723843.5124 # total power usage of dcache_cc2
dcache2_power_cc2      3941506.5971 # total power usage of dcache2_cc2
alu_power_cc2          125803247.0037 # total power usage of alu_cc2
resultbus_power_cc2    68226301.9796 # total power usage of resultbus_cc2
clock_power_cc2        424097315.8756 # total power usage of clock_cc2
avg_rename_power_cc2         0.1607 # avg power usage of rename unit_cc2
avg_bpred_power_cc2          0.2793 # avg power usage of bpred unit_cc2
avg_window_power_cc2         1.2505 # avg power usage of instruction window_cc2
avg_lsq_power_cc2            0.1548 # avg power usage of instruction lsq_cc2
avg_regfile_power_cc2        0.5345 # avg power usage of arch. regfile_cc2
avg_icache_power_cc2         1.7470 # avg power usage of icache_cc2
avg_dcache_power_cc2         1.9203 # avg power usage of dcache_cc2
avg_dcache2_power_cc2        0.0519 # avg power usage of dcache2_cc2
avg_alu_power_cc2            1.6578 # avg power usage of alu_cc2
avg_resultbus_power_cc2       0.8991 # avg power usage of resultbus_cc2
avg_clock_power_cc2          5.5887 # avg power usage of clock_cc2
fetch_stage_power_cc2  153764150.4952 # total power usage of fetch stage_cc2
dispatch_stage_power_cc2 12190956.9227 # total power usage of dispatch stage_cc2
issue_stage_power_cc2  450333840.4374 # total power usage of issue stage_cc2
avg_fetch_power_cc2          2.0263 # average power of fetch unit per cycle_cc2
avg_dispatch_power_cc2       0.1607 # average power of dispatch unit per cycle_cc2
avg_issue_power_cc2          5.9345 # average power of issue unit per cycle_cc2
total_power_cycle_cc2  1080948929.5360 # total power per cycle_cc2
avg_total_power_cycle_cc2      14.2446 # average total power per cycle_cc2
avg_total_power_insn_cc2       9.2651 # average total power per insn_cc2
rename_power_cc3       13674478.8479 # total power usage of rename unit_cc3
bpred_power_cc3        39012470.8763 # total power usage of bpred unit_cc3
window_power_cc3       99905651.6168 # total power usage of instruction window_cc3
lsq_power_cc3          17443615.3394 # total power usage of lsq_cc3
regfile_power_cc3      50922455.5239 # total power usage of arch. regfile_cc3
icache_power_cc3       142326703.8854 # total power usage of icache_cc3
dcache_power_cc3       176741805.9149 # total power usage of dcache_cc3
dcache2_power_cc3      26795134.6506 # total power usage of dcache2_cc3
alu_power_cc3          249010740.5158 # total power usage of alu_cc3
resultbus_power_cc3    74955196.7289 # total power usage of resultbus_cc3
clock_power_cc3        561935492.3455 # total power usage of clock_cc3
avg_rename_power_cc3         0.1802 # avg power usage of rename unit_cc3
avg_bpred_power_cc3          0.5141 # avg power usage of bpred unit_cc3
avg_window_power_cc3         1.3165 # avg power usage of instruction window_cc3
avg_lsq_power_cc3            0.2299 # avg power usage of instruction lsq_cc3
avg_regfile_power_cc3        0.6711 # avg power usage of arch. regfile_cc3
avg_icache_power_cc3         1.8756 # avg power usage of icache_cc3
avg_dcache_power_cc3         2.3291 # avg power usage of dcache_cc3
avg_dcache2_power_cc3        0.3531 # avg power usage of dcache2_cc3
avg_alu_power_cc3            3.2814 # avg power usage of alu_cc3
avg_resultbus_power_cc3       0.9878 # avg power usage of resultbus_cc3
avg_clock_power_cc3          7.4051 # avg power usage of clock_cc3
fetch_stage_power_cc3  181339174.7617 # total power usage of fetch stage_cc3
dispatch_stage_power_cc3 13674478.8479 # total power usage of dispatch stage_cc3
issue_stage_power_cc3  644852144.7665 # total power usage of issue stage_cc3
avg_fetch_power_cc3          2.3897 # average power of fetch unit per cycle_cc3
avg_dispatch_power_cc3       0.1802 # average power of dispatch unit per cycle_cc3
avg_issue_power_cc3          8.4978 # average power of issue unit per cycle_cc3
total_power_cycle_cc3  1452723746.2454 # total power per cycle_cc3
avg_total_power_cycle_cc3      19.1439 # average total power per cycle_cc3
avg_total_power_insn_cc3      12.4516 # average total power per insn_cc3
total_rename_access       116669508 # total number accesses of rename unit
total_bpred_access         14873755 # total number accesses of bpred unit
total_window_access       447580182 # total number accesses of instruction window
total_lsq_access           45769992 # total number accesses of load/store queue
total_regfile_access      155497959 # total number accesses of arch. regfile
total_icache_access       124988671 # total number accesses of icache
total_dcache_access        45265019 # total number accesses of dcache
total_dcache2_access        2540468 # total number accesses of dcache2
total_alu_access          107912746 # total number accesses of alu
total_resultbus_access    126700089 # total number accesses of resultbus
avg_rename_access            1.5375 # avg number accesses of rename unit
avg_bpred_access             0.1960 # avg number accesses of bpred unit
avg_window_access            5.8982 # avg number accesses of instruction window
avg_lsq_access               0.6032 # avg number accesses of lsq
avg_regfile_access           2.0491 # avg number accesses of arch. regfile
avg_icache_access            1.6471 # avg number accesses of icache
avg_dcache_access            0.5965 # avg number accesses of dcache
avg_dcache2_access           0.0335 # avg number accesses of dcache2
avg_alu_access               1.4221 # avg number accesses of alu
avg_resultbus_access         1.6696 # avg number accesses of resultbus
max_rename_access                 4 # max number accesses of rename unit
max_bpred_access                  4 # max number accesses of bpred unit
max_window_access                18 # max number accesses of instruction window
max_lsq_access                    6 # max number accesses of load/store queue
max_regfile_access               12 # max number accesses of arch. regfile
max_icache_access                 4 # max number accesses of icache
max_dcache_access                 4 # max number accesses of dcache
max_dcache2_access                6 # max number accesses of dcache2
max_alu_access                    4 # max number accesses of alu
max_resultbus_access              8 # max number accesses of resultbus
max_cycle_power_cc1         51.5647 # maximum cycle power usage of cc1
max_cycle_power_cc2         33.9416 # maximum cycle power usage of cc2
max_cycle_power_cc3         37.2064 # maximum cycle power usage of cc3
sim_invalid_addrs                 0 # total non-speculative bogus addresses seen (debug var)
ld_text_base           0x0120000000 # program text (code) segment base
ld_text_size                1990656 # program text (code) size in bytes
ld_data_base           0x0140000000 # program initialized data segment base
ld_data_size                 306320 # program init'ed `.data' and uninit'ed `.bss' size in bytes
ld_stack_base          0x011ff9b000 # program stack segment base (highest address in stack)
ld_stack_size                 16384 # program initial stack size
ld_prog_entry          0x01200cee50 # program entry point (initial PC)
ld_environ_base        0x011ff3bfe0 # program environment base address address
ld_target_big_endian              0 # target executable endian-ness, non-zero if big endian
mem.page_count                 8420 # total number of pages allocated
mem.page_mem                 67360k # total size of memory pages allocated
mem.ptab_misses              106776 # total first level page table misses
mem.ptab_accesses         996820158 # total page table accesses
mem.ptab_miss_rate           0.0001 # first level page table miss rate

