sim-outorder: SimpleScalar/Alpha Tool Set version 3.0 of August, 2003.
Copyright (c) 1994-2003 by Todd M. Austin, Ph.D. and SimpleScalar, LLC.
All Rights Reserved. This version of SimpleScalar is licensed for academic
non-commercial use.  No portion of this work may be used by any commercial
entity, or for any commercial purpose, without the prior written permission
of SimpleScalar, LLC (info@simplescalar.com).


Processor Parameters:
Issue Width: 4
Window Size: 16
Number of Virtual Registers: 32
Number of Physical Registers: 16
Datapath Width: 64
Total Power Consumption: 72.5417
Branch Predictor Power Consumption: 2.84969  (4.04%)
 branch target buffer power (W): 2.49493
 local predict power (W): 0.0879711
 global predict power (W): 0.0996078
 chooser power (W): 0.0702439
 RAS power (W): 0.0969383
Rename Logic Power Consumption: 0.417965  (0.593%)
 Instruction Decode Power (W): 0.0159915
 RAT decode_power (W): 0.113514
 RAT wordline_power (W): 0.0307815
 RAT bitline_power (W): 0.246771
 DCL Comparators (W): 0.0109075
Instruction Window Power Consumption: 2.20432  (3.12%)
 tagdrive (W): 0.0943488
 tagmatch (W): 0.033695
 Selection Logic (W): 0.0134217
 decode_power (W): 0.0532503
 wordline_power (W): 0.0844643
 bitline_power (W): 1.92514
Load/Store Queue Power Consumption: 0.96318  (1.37%)
 tagdrive (W): 0.457232
 tagmatch (W): 0.100774
 decode_power (W): 0.00799577
 wordline_power (W): 0.0150119
 bitline_power (W): 0.382166
Arch. Register File Power Consumption: 3.57247  (5.06%)
 decode_power (W): 0.113514
 wordline_power (W): 0.0844643
 bitline_power (W): 3.37449
Result Bus Power Consumption: 2.29754  (3.26%)
Total Clock Power: 26.7211  (37.9%)
Int ALU Power: 4.66013  (6.61%)
FP ALU Power: 14.281  (20.2%)
Instruction Cache Power Consumption: 2.76773  (3.92%)
 decode_power (W): 0.151353
 wordline_power (W): 0.180479
 bitline_power (W): 1.42251
 senseamp_power (W): 0.768
 tagarray_power (W): 0.245382
Itlb_power (W): 0.264834 (0.375%)
Data Cache Power Consumption: 5.53546  (7.85%)
 decode_power (W): 0.302705
 wordline_power (W): 0.360958
 bitline_power (W): 2.84503
 senseamp_power (W): 1.536
 tagarray_power (W): 0.490764
Dtlb_power (W): 0.903238 (1.28%)
Level 2 Cache Power Consumption: 3.10298 (4.4%)
 decode_power (W): 0.19487
 wordline_power (W): 0.0430878
 bitline_power (W): 1.77274
 senseamp_power (W): 0.192
 tagarray_power (W): 0.900275
sim: loading EIO file: ../benchmarks/187.facerec.spec_ref.eio.gz
sim: command line: ./sim-outorder -config ../configs/current.config ../benchmarks/187.facerec.spec_ref.eio.gz 

sim: simulation started @ Mon Nov 23 19:37:29 2015, options follow:

sim-outorder: This simulator implements a very detailed out-of-order issue
superscalar processor with a two-level memory system and speculative
execution support.  This simulator is a performance simulator, tracking the
latency of all pipeline operations.

# -config                     # load configuration from a file
# -dumpconfig                 # dump configuration to a file
# -h                    false # print help message    
# -v                    false # verbose operation     
# -d                    false # enable debug message  
# -i                    false # start in Dlite debugger
-seed                       1 # random number generator seed (0 for timer seed)
# -q                    false # initialize and terminate immediately
# -chkpt               <null> # restore EIO trace execution from <fname>
# -redir:sim     ../results/04_01_2lbp/187.facerec.spec_ref.eio.gz.out # redirect simulator output to file (non-interactive only)
# -redir:prog       /dev/null # redirect simulated program output to file
-nice                       0 # simulator scheduling priority
-freq            600000000.0000 # frequency             
-max:inst           100000000 # maximum number of inst's to execute
-fastfwd                    0 # number of insts skipped before timing starts
# -ptrace              <null> # generate pipetrace, i.e., <fname|stdout|stderr> <range>
-fetch:ifqsize              4 # instruction fetch queue size (in insts)
-fetch:mplat                3 # extra branch mis-prediction latency
-fetch:speed                1 # speed of front-end of machine relative to execution core
-bpred                   2lev # branch predictor type {nottaken|taken|perfect|bimod|2lev|comb}
-bpred:bimod     2048 # bimodal predictor config (<table size>)
-bpred:2lev      1 1024 8 0 # 2-level predictor config (<l1size> <l2size> <hist_size> <xor>)
-bpred:comb      1024 # combining predictor config (<meta_table_size>)
-bpred:ras                  8 # return address stack size (0 for no return stack)
-bpred:btb       512 4 # BTB config (<num_sets> <associativity>)
# -bpred:spec_update       <null> # speculative predictors update in {ID|WB} (default non-spec)
-decode:width               4 # instruction decode B/W (insts/cycle)
-issue:width                4 # instruction issue B/W (insts/cycle)
-issue:inorder          false # run pipeline with in-order issue
-issue:wrongpath         true # issue instructions down wrong execution paths
-commit:width               4 # instruction commit B/W (insts/cycle)
-ruu:size                  16 # register update unit (RUU) size
-lsq:size                   8 # load/store queue (LSQ) size
-cache:dl1       dl1:32:64:8:f # l1 data cache config, i.e., {<config>|none}
-cache:dl1lat               1 # l1 data cache hit latency (in cycles)
-cache:dl2       dl2:256:64:8:f # l2 data cache config, i.e., {<config>|none}
-cache:dl2lat               2 # l2 data cache hit latency (in cycles)
-cache:il1       il1:32:64:8:f # l1 inst cache config, i.e., {<config>|dl1|dl2|none}
-cache:il1lat               1 # l1 instruction cache hit latency (in cycles)
-cache:il2                dl2 # l2 instruction cache config, i.e., {<config>|dl2|none}
-cache:il2lat               2 # l2 instruction cache hit latency (in cycles)
-cache:flush            false # flush caches on system calls
-cache:icompress        false # convert 64-bit inst addresses to 32-bit inst equivalents
-mem:lat         103 1 # memory access latency (<first_chunk> <inter_chunk>)
-mem:width                  8 # memory access bus width (in bytes)
-tlb:itlb        itlb:16:4096:4:l # instruction TLB config, i.e., {<config>|none}
-tlb:dtlb        dtlb:32:4096:4:l # data TLB config, i.e., {<config>|none}
-tlb:lat                   30 # inst/data TLB miss latency (in cycles)
-res:ialu                   4 # total number of integer ALU's available
-res:imult                  1 # total number of integer multiplier/dividers available
-res:memport                2 # total number of memory system ports available (to CPU)
-res:fpalu                  4 # total number of floating point ALU's available
-res:fpmult                 1 # total number of floating point multiplier/dividers available
# -pcstat              <null> # profile stat(s) against text addr's (mult uses ok)
-bugcompat              false # operate in backward-compatible bugs mode (for testing only)

  Pipetrace range arguments are formatted as follows:

    {{@|#}<start>}:{{@|#|+}<end>}

  Both ends of the range are optional, if neither are specified, the entire
  execution is traced.  Ranges that start with a `@' designate an address
  range to be traced, those that start with an `#' designate a cycle count
  range.  All other range values represent an instruction count range.  The
  second argument, if specified with a `+', indicates a value relative
  to the first argument, e.g., 1000:+100 == 1000:1100.  Program symbols may
  be used in all contexts.

    Examples:   -ptrace FOO.trc #0:#1000
                -ptrace BAR.trc @2000:
                -ptrace BLAH.trc :1500
                -ptrace UXXE.trc :
                -ptrace FOOBAR.trc @main:+278

  Branch predictor configuration examples for 2-level predictor:
    Configurations:   N, M, W, X
      N   # entries in first level (# of shift register(s))
      W   width of shift register(s)
      M   # entries in 2nd level (# of counters, or other FSM)
      X   (yes-1/no-0) xor history and address for 2nd level index
    Sample predictors:
      GAg     : 1, W, 2^W, 0
      GAp     : 1, W, M (M > 2^W), 0
      PAg     : N, W, 2^W, 0
      PAp     : N, W, M (M == 2^(N+W)), 0
      gshare  : 1, W, 2^W, 1
  Predictor `comb' combines a bimodal and a 2-level predictor.

  The cache config parameter <config> has the following format:

    <name>:<nsets>:<bsize>:<assoc>:<repl>

    <name>   - name of the cache being defined
    <nsets>  - number of sets in the cache
    <bsize>  - block size of the cache
    <assoc>  - associativity of the cache
    <repl>   - block replacement strategy, 'l'-LRU, 'f'-FIFO, 'r'-random

    Examples:   -cache:dl1 dl1:4096:32:1:l
                -dtlb dtlb:128:4096:32:r

  Cache levels can be unified by pointing a level of the instruction cache
  hierarchy at the data cache hiearchy using the "dl1" and "dl2" cache
  configuration arguments.  Most sensible combinations are supported, e.g.,

    A unified l2 cache (il2 is pointed at dl2):
      -cache:il1 il1:128:64:1:l -cache:il2 dl2
      -cache:dl1 dl1:256:32:1:l -cache:dl2 ul2:1024:64:2:l

    Or, a fully unified cache hierarchy (il1 pointed at dl1):
      -cache:il1 dl1
      -cache:dl1 ul1:256:32:1:l -cache:dl2 ul2:1024:64:2:l



sim: ** starting performance simulation **

sim: ** simulation statistics **
sim_num_insn              100000001 # total number of instructions committed
sim_num_refs               25404397 # total number of loads and stores committed
sim_num_loads              23367443 # total number of loads committed
sim_num_stores         2036954.0000 # total number of stores committed
sim_num_branches            8003348 # total number of branches committed
sim_elapsed_time                107 # total simulation time in seconds
sim_inst_rate           934579.4486 # simulation speed (in insts/sec)
sim_total_insn            101199266 # total number of instructions executed
sim_total_refs             25629777 # total number of loads and stores executed
sim_total_loads            23544502 # total number of loads executed
sim_total_stores       2085275.0000 # total number of stores executed
sim_total_branches          8214692 # total number of branches executed
sim_cycle                  97587074 # total simulation time in cycles
sim_IPC                      1.0247 # instructions per cycle
sim_CPI                      0.9759 # cycles per instruction
sim_exec_BW                  1.0370 # total instructions (mis-spec + committed) per cycle
sim_IPB                     12.4948 # instruction per branch
IFQ_count                 379528614 # cumulative IFQ occupancy
IFQ_fcount                 93153137 # cumulative IFQ full count
ifq_occupancy                3.8891 # avg IFQ occupancy (insn's)
ifq_rate                     1.0370 # avg IFQ dispatch rate (insn/cycle)
ifq_latency                  3.7503 # avg IFQ occupant latency (cycle's)
ifq_full                     0.9546 # fraction of time (cycle's) IFQ was full
RUU_count                1460480042 # cumulative RUU occupancy
RUU_fcount                 59739917 # cumulative RUU full count
ruu_occupancy               14.9659 # avg RUU occupancy (insn's)
ruu_rate                     1.0370 # avg RUU dispatch rate (insn/cycle)
ruu_latency                 14.4317 # avg RUU occupant latency (cycle's)
ruu_full                     0.6122 # fraction of time (cycle's) RUU was full
LSQ_count                 546037004 # cumulative LSQ occupancy
LSQ_fcount                 30807166 # cumulative LSQ full count
lsq_occupancy                5.5954 # avg LSQ occupancy (insn's)
lsq_rate                     1.0370 # avg LSQ dispatch rate (insn/cycle)
lsq_latency                  5.3957 # avg LSQ occupant latency (cycle's)
lsq_full                     0.3157 # fraction of time (cycle's) LSQ was full
sim_slip                 2129761285 # total number of slip cycles
avg_sim_slip                21.2976 # the average slip between issue and retirement
bpred_2lev.lookups          8333393 # total number of bpred lookups
bpred_2lev.updates          8003348 # total number of updates
bpred_2lev.addr_hits        7607084 # total number of address-predicted hits
bpred_2lev.dir_hits         7607291 # total number of direction-predicted hits (includes addr-hits)
bpred_2lev.misses            396057 # total number of misses
bpred_2lev.jr_hits            91669 # total number of address-predicted hits for JR's
bpred_2lev.jr_seen            91708 # total number of JR's seen
bpred_2lev.jr_non_ras_hits.PP            9 # total number of address-predicted hits for non-RAS JR's
bpred_2lev.jr_non_ras_seen.PP           47 # total number of non-RAS JR's seen
bpred_2lev.bpred_addr_rate    0.9505 # branch address-prediction rate (i.e., addr-hits/updates)
bpred_2lev.bpred_dir_rate    0.9505 # branch direction-prediction rate (i.e., all-hits/updates)
bpred_2lev.bpred_jr_rate    0.9996 # JR address-prediction rate (i.e., JR addr-hits/JRs seen)
bpred_2lev.bpred_jr_non_ras_rate.PP    0.1915 # non-RAS JR addr-pred rate (ie, non-RAS JR hits/JRs seen)
bpred_2lev.retstack_pushes        91956 # total number of address pushed onto ret-addr stack
bpred_2lev.retstack_pops        92676 # total number of address popped off of ret-addr stack
bpred_2lev.used_ras.PP        91661 # total number of RAS predictions used
bpred_2lev.ras_hits.PP        91660 # total number of RAS hits
bpred_2lev.ras_rate.PP    1.0000 # RAS prediction rate (i.e., RAS hits/used RAS)
il1.accesses              102237996 # total number of accesses
il1.hits                  102237501 # total number of hits
il1.misses                      495 # total number of misses
il1.replacements                239 # total number of replacements
il1.writebacks                    0 # total number of writebacks
il1.invalidations                 0 # total number of invalidations
il1.miss_rate                0.0000 # miss rate (i.e., misses/ref)
il1.repl_rate                0.0000 # replacement rate (i.e., repls/ref)
il1.wb_rate                  0.0000 # writeback rate (i.e., wrbks/ref)
il1.inv_rate                 0.0000 # invalidation rate (i.e., invs/ref)
dl1.accesses               25324873 # total number of accesses
dl1.hits                   24673524 # total number of hits
dl1.misses                   651349 # total number of misses
dl1.replacements             651093 # total number of replacements
dl1.writebacks                77526 # total number of writebacks
dl1.invalidations                 0 # total number of invalidations
dl1.miss_rate                0.0257 # miss rate (i.e., misses/ref)
dl1.repl_rate                0.0257 # replacement rate (i.e., repls/ref)
dl1.wb_rate                  0.0031 # writeback rate (i.e., wrbks/ref)
dl1.inv_rate                 0.0000 # invalidation rate (i.e., invs/ref)
dl2.accesses                 729370 # total number of accesses
dl2.hits                     226358 # total number of hits
dl2.misses                   503012 # total number of misses
dl2.replacements             500964 # total number of replacements
dl2.writebacks                68082 # total number of writebacks
dl2.invalidations                 0 # total number of invalidations
dl2.miss_rate                0.6897 # miss rate (i.e., misses/ref)
dl2.repl_rate                0.6868 # replacement rate (i.e., repls/ref)
dl2.wb_rate                  0.0933 # writeback rate (i.e., wrbks/ref)
dl2.inv_rate                 0.0000 # invalidation rate (i.e., invs/ref)
itlb.accesses             102237996 # total number of accesses
itlb.hits                 102237963 # total number of hits
itlb.misses                      33 # total number of misses
itlb.replacements                 0 # total number of replacements
itlb.writebacks                   0 # total number of writebacks
itlb.invalidations                0 # total number of invalidations
itlb.miss_rate               0.0000 # miss rate (i.e., misses/ref)
itlb.repl_rate               0.0000 # replacement rate (i.e., repls/ref)
itlb.wb_rate                 0.0000 # writeback rate (i.e., wrbks/ref)
itlb.inv_rate                0.0000 # invalidation rate (i.e., invs/ref)
dtlb.accesses              25408565 # total number of accesses
dtlb.hits                  25390378 # total number of hits
dtlb.misses                   18187 # total number of misses
dtlb.replacements             18059 # total number of replacements
dtlb.writebacks                   0 # total number of writebacks
dtlb.invalidations                0 # total number of invalidations
dtlb.miss_rate               0.0007 # miss rate (i.e., misses/ref)
dtlb.repl_rate               0.0007 # replacement rate (i.e., repls/ref)
dtlb.wb_rate                 0.0000 # writeback rate (i.e., wrbks/ref)
dtlb.inv_rate                0.0000 # invalidation rate (i.e., invs/ref)
rename_power           40788028.8757 # total power usage of rename unit
bpred_power            278092806.3326 # total power usage of bpred unit
window_power           215113082.1242 # total power usage of instruction window
lsq_power              93993916.8991 # total power usage of load/store queue
regfile_power          348627099.1932 # total power usage of arch. regfile
icache_power           295938955.3636 # total power usage of icache
dcache_power           628333482.2907 # total power usage of dcache
dcache2_power          302810423.9651 # total power usage of dcache2
alu_power              1848413889.6525 # total power usage of alu
falu_power             1393645391.1715 # total power usage of falu
resultbus_power        224210488.1560 # total power usage of resultbus
clock_power            2607632381.9236 # total power usage of clock
avg_rename_power             0.4180 # avg power usage of rename unit
avg_bpred_power              2.8497 # avg power usage of bpred unit
avg_window_power             2.2043 # avg power usage of instruction window
avg_lsq_power                0.9632 # avg power usage of lsq
avg_regfile_power            3.5725 # avg power usage of arch. regfile
avg_icache_power             3.0326 # avg power usage of icache
avg_dcache_power             6.4387 # avg power usage of dcache
avg_dcache2_power            3.1030 # avg power usage of dcache2
avg_alu_power               18.9412 # avg power usage of alu
avg_falu_power              14.2810 # avg power usage of falu
avg_resultbus_power          2.2975 # avg power usage of resultbus
avg_clock_power             26.7211 # avg power usage of clock
fetch_stage_power      574031761.6962 # total power usage of fetch stage
dispatch_stage_power   40788028.8757 # total power usage of dispatch stage
issue_stage_power      3312875283.0877 # total power usage of issue stage
avg_fetch_power              5.8823 # average power of fetch unit per cycle
avg_dispatch_power           0.4180 # average power of dispatch unit per cycle
avg_issue_power             33.9479 # average power of issue unit per cycle
total_power            6883954554.7764 # total power per cycle
avg_total_power_cycle       70.5417 # average total power per cycle
avg_total_power_cycle_nofp_nod2      53.1576 # average total power per cycle
avg_total_power_insn        68.0238 # average total power per insn
avg_total_power_insn_nofp_nod2      51.2602 # average total power per insn
rename_power_cc1       14876999.1659 # total power usage of rename unit_cc1
bpred_power_cc1        20312072.7641 # total power usage of bpred unit_cc1
window_power_cc1       103075531.9517 # total power usage of instruction window_cc1
lsq_power_cc1          9778583.2213 # total power usage of lsq_cc1
regfile_power_cc1      121212275.2530 # total power usage of arch. regfile_cc1
icache_power_cc1       110507910.8623 # total power usage of icache_cc1
dcache_power_cc1       110866988.4104 # total power usage of dcache_cc1
dcache2_power_cc1      1792495.0405 # total power usage of dcache2_cc1
alu_power_cc1          448239681.8512 # total power usage of alu_cc1
resultbus_power_cc1    89802712.1363 # total power usage of resultbus_cc1
clock_power_cc1        690341962.3681 # total power usage of clock_cc1
avg_rename_power_cc1         0.1524 # avg power usage of rename unit_cc1
avg_bpred_power_cc1          0.2081 # avg power usage of bpred unit_cc1
avg_window_power_cc1         1.0562 # avg power usage of instruction window_cc1
avg_lsq_power_cc1            0.1002 # avg power usage of lsq_cc1
avg_regfile_power_cc1        1.2421 # avg power usage of arch. regfile_cc1
avg_icache_power_cc1         1.1324 # avg power usage of icache_cc1
avg_dcache_power_cc1         1.1361 # avg power usage of dcache_cc1
avg_dcache2_power_cc1        0.0184 # avg power usage of dcache2_cc1
avg_alu_power_cc1            4.5932 # avg power usage of alu_cc1
avg_resultbus_power_cc1       0.9202 # avg power usage of resultbus_cc1
avg_clock_power_cc1          7.0741 # avg power usage of clock_cc1
fetch_stage_power_cc1  130819983.6264 # total power usage of fetch stage_cc1
dispatch_stage_power_cc1 14876999.1659 # total power usage of dispatch stage_cc1
issue_stage_power_cc1  763555992.6114 # total power usage of issue stage_cc1
avg_fetch_power_cc1          1.3405 # average power of fetch unit per cycle_cc1
avg_dispatch_power_cc1       0.1524 # average power of dispatch unit per cycle_cc1
avg_issue_power_cc1          7.8244 # average power of issue unit per cycle_cc1
total_power_cycle_cc1  1720807213.0248 # total power per cycle_cc1
avg_total_power_cycle_cc1      17.6336 # average total power per cycle_cc1
avg_total_power_insn_cc1      17.0041 # average total power per insn_cc1
rename_power_cc2       10574450.1162 # total power usage of rename unit_cc2
bpred_power_cc2        11403526.1924 # total power usage of bpred unit_cc2
window_power_cc2       85979028.4690 # total power usage of instruction window_cc2
lsq_power_cc2          6922441.5125 # total power usage of lsq_cc2
regfile_power_cc2      53075573.7710 # total power usage of arch. regfile_cc2
icache_power_cc2       110507910.8623 # total power usage of icache_cc2
dcache_power_cc2       81529576.4991 # total power usage of dcache_cc2
dcache2_power_cc2      1131609.0842 # total power usage of dcache2_cc2
alu_power_cc2          166203896.9937 # total power usage of alu_cc2
resultbus_power_cc2    62301737.6222 # total power usage of resultbus_cc2
clock_power_cc2        387424353.5578 # total power usage of clock_cc2
avg_rename_power_cc2         0.1084 # avg power usage of rename unit_cc2
avg_bpred_power_cc2          0.1169 # avg power usage of bpred unit_cc2
avg_window_power_cc2         0.8810 # avg power usage of instruction window_cc2
avg_lsq_power_cc2            0.0709 # avg power usage of instruction lsq_cc2
avg_regfile_power_cc2        0.5439 # avg power usage of arch. regfile_cc2
avg_icache_power_cc2         1.1324 # avg power usage of icache_cc2
avg_dcache_power_cc2         0.8355 # avg power usage of dcache_cc2
avg_dcache2_power_cc2        0.0116 # avg power usage of dcache2_cc2
avg_alu_power_cc2            1.7031 # avg power usage of alu_cc2
avg_resultbus_power_cc2       0.6384 # avg power usage of resultbus_cc2
avg_clock_power_cc2          3.9700 # avg power usage of clock_cc2
fetch_stage_power_cc2  121911437.0547 # total power usage of fetch stage_cc2
dispatch_stage_power_cc2 10574450.1162 # total power usage of dispatch stage_cc2
issue_stage_power_cc2  404068290.1806 # total power usage of issue stage_cc2
avg_fetch_power_cc2          1.2493 # average power of fetch unit per cycle_cc2
avg_dispatch_power_cc2       0.1084 # average power of dispatch unit per cycle_cc2
avg_issue_power_cc2          4.1406 # average power of issue unit per cycle_cc2
total_power_cycle_cc2  977054104.6803 # total power per cycle_cc2
avg_total_power_cycle_cc2      10.0121 # average total power per cycle_cc2
avg_total_power_insn_cc2       9.6548 # average total power per insn_cc2
rename_power_cc3       13165553.0730 # total power usage of rename unit_cc3
bpred_power_cc3        37181600.9900 # total power usage of bpred unit_cc3
window_power_cc3       97479197.7496 # total power usage of instruction window_cc3
lsq_power_cc3          15344686.0319 # total power usage of lsq_cc3
regfile_power_cc3      74852171.9318 # total power usage of arch. regfile_cc3
icache_power_cc3       129051015.2311 # total power usage of icache_cc3
dcache_power_cc3       133323095.7534 # total power usage of dcache_cc3
dcache2_power_cc3      31233978.2691 # total power usage of dcache2_cc3
alu_power_cc3          306221317.1621 # total power usage of alu_cc3
resultbus_power_cc3    75332498.6683 # total power usage of resultbus_cc3
clock_power_cc3        578397001.9362 # total power usage of clock_cc3
avg_rename_power_cc3         0.1349 # avg power usage of rename unit_cc3
avg_bpred_power_cc3          0.3810 # avg power usage of bpred unit_cc3
avg_window_power_cc3         0.9989 # avg power usage of instruction window_cc3
avg_lsq_power_cc3            0.1572 # avg power usage of instruction lsq_cc3
avg_regfile_power_cc3        0.7670 # avg power usage of arch. regfile_cc3
avg_icache_power_cc3         1.3224 # avg power usage of icache_cc3
avg_dcache_power_cc3         1.3662 # avg power usage of dcache_cc3
avg_dcache2_power_cc3        0.3201 # avg power usage of dcache2_cc3
avg_alu_power_cc3            3.1379 # avg power usage of alu_cc3
avg_resultbus_power_cc3       0.7720 # avg power usage of resultbus_cc3
avg_clock_power_cc3          5.9270 # avg power usage of clock_cc3
fetch_stage_power_cc3  166232616.2211 # total power usage of fetch stage_cc3
dispatch_stage_power_cc3 13165553.0730 # total power usage of dispatch stage_cc3
issue_stage_power_cc3  658934773.6345 # total power usage of issue stage_cc3
avg_fetch_power_cc3          1.7034 # average power of fetch unit per cycle_cc3
avg_dispatch_power_cc3       0.1349 # average power of dispatch unit per cycle_cc3
avg_issue_power_cc3          6.7523 # average power of issue unit per cycle_cc3
total_power_cycle_cc3  1491582116.7966 # total power per cycle_cc3
avg_total_power_cycle_cc3      15.2846 # average total power per cycle_cc3
avg_total_power_insn_cc3      14.7391 # average total power per insn_cc3
total_rename_access       101199266 # total number accesses of rename unit
total_bpred_access          8003348 # total number accesses of bpred unit
total_window_access       392958286 # total number accesses of instruction window
total_lsq_access           25493819 # total number accesses of load/store queue
total_regfile_access      192712417 # total number accesses of arch. regfile
total_icache_access       102239616 # total number accesses of icache
total_dcache_access        25324873 # total number accesses of dcache
total_dcache2_access         729370 # total number accesses of dcache2
total_alu_access          100363063 # total number accesses of alu
total_resultbus_access    115697839 # total number accesses of resultbus
avg_rename_access            1.0370 # avg number accesses of rename unit
avg_bpred_access             0.0820 # avg number accesses of bpred unit
avg_window_access            4.0267 # avg number accesses of instruction window
avg_lsq_access               0.2612 # avg number accesses of lsq
avg_regfile_access           1.9748 # avg number accesses of arch. regfile
avg_icache_access            1.0477 # avg number accesses of icache
avg_dcache_access            0.2595 # avg number accesses of dcache
avg_dcache2_access           0.0075 # avg number accesses of dcache2
avg_alu_access               1.0284 # avg number accesses of alu
avg_resultbus_access         1.1856 # avg number accesses of resultbus
max_rename_access                 4 # max number accesses of rename unit
max_bpred_access                  3 # max number accesses of bpred unit
max_window_access                17 # max number accesses of instruction window
max_lsq_access                    4 # max number accesses of load/store queue
max_regfile_access               12 # max number accesses of arch. regfile
max_icache_access                 4 # max number accesses of icache
max_dcache_access                 4 # max number accesses of dcache
max_dcache2_access                4 # max number accesses of dcache2
max_alu_access                    4 # max number accesses of alu
max_resultbus_access              8 # max number accesses of resultbus
max_cycle_power_cc1         47.2909 # maximum cycle power usage of cc1
max_cycle_power_cc2         30.2122 # maximum cycle power usage of cc2
max_cycle_power_cc3         33.8328 # maximum cycle power usage of cc3
sim_invalid_addrs                 0 # total non-speculative bogus addresses seen (debug var)
ld_text_base           0x0120000000 # program text (code) segment base
ld_text_size                 901120 # program text (code) size in bytes
ld_data_base           0x0140000000 # program initialized data segment base
ld_data_size                 206576 # program init'ed `.data' and uninit'ed `.bss' size in bytes
ld_stack_base          0x011ff9b000 # program stack segment base (highest address in stack)
ld_stack_size                 16384 # program initial stack size
ld_prog_entry          0x01200275e0 # program entry point (initial PC)
ld_environ_base        0x011ff969c0 # program environment base address address
ld_target_big_endian              0 # target executable endian-ness, non-zero if big endian
mem.page_count                 2125 # total number of pages allocated
mem.page_mem                 17000k # total size of memory pages allocated
mem.ptab_misses                2195 # total first level page table misses
mem.ptab_accesses         498280664 # total page table accesses
mem.ptab_miss_rate           0.0000 # first level page table miss rate

