sim-outorder: SimpleScalar/Alpha Tool Set version 3.0 of August, 2003.
Copyright (c) 1994-2003 by Todd M. Austin, Ph.D. and SimpleScalar, LLC.
All Rights Reserved. This version of SimpleScalar is licensed for academic
non-commercial use.  No portion of this work may be used by any commercial
entity, or for any commercial purpose, without the prior written permission
of SimpleScalar, LLC (info@simplescalar.com).


Processor Parameters:
Issue Width: 16
Window Size: 128
Number of Virtual Registers: 32
Number of Physical Registers: 128
Datapath Width: 64
Total Power Consumption: 249.062
Branch Predictor Power Consumption: 2.84842  (1.15%)
 branch target buffer power (W): 2.49493
 local predict power (W): 0.0867068
 global predict power (W): 0.0996078
 chooser power (W): 0.0702439
 RAS power (W): 0.0969383
Rename Logic Power Consumption: 3.68501  (1.49%)
 Instruction Decode Power (W): 0.0639661
 RAT decode_power (W): 0.454058
 RAT wordline_power (W): 0.257408
 RAT bitline_power (W): 2.69143
 DCL Comparators (W): 0.218151
Instruction Window Power Consumption: 76.4406  (30.9%)
 tagdrive (W): 6.64903
 tagmatch (W): 2.27024
 Selection Logic (W): 0.461706
 decode_power (W): 2.17466
 wordline_power (W): 1.0557
 bitline_power (W): 63.8292
Load/Store Queue Power Consumption: 4.43192  (1.79%)
 tagdrive (W): 1.99569
 tagmatch (W): 0.80629
 decode_power (W): 0.0813819
 wordline_power (W): 0.0150119
 bitline_power (W): 1.53354
Arch. Register File Power Consumption: 25.1387  (10.2%)
 decode_power (W): 0.454058
 wordline_power (W): 1.0557
 bitline_power (W): 23.629
Result Bus Power Consumption: 51.7534  (20.9%)
Total Clock Power: 53.5782  (21.7%)
Int ALU Power: 2.33007  (0.943%)
FP ALU Power: 14.281  (5.78%)
Instruction Cache Power Consumption: 2.76773  (1.12%)
 decode_power (W): 0.151353
 wordline_power (W): 0.180479
 bitline_power (W): 1.42251
 senseamp_power (W): 0.768
 tagarray_power (W): 0.245382
Itlb_power (W): 0.264936 (0.107%)
Data Cache Power Consumption: 5.53546  (2.24%)
 decode_power (W): 0.302705
 wordline_power (W): 0.360958
 bitline_power (W): 2.84503
 senseamp_power (W): 1.536
 tagarray_power (W): 0.490764
Dtlb_power (W): 0.903441 (0.366%)
Level 2 Cache Power Consumption: 3.10298 (1.26%)
 decode_power (W): 0.19487
 wordline_power (W): 0.0430878
 bitline_power (W): 1.77274
 senseamp_power (W): 0.192
 tagarray_power (W): 0.900275
sim: loading EIO file: ../benchmarks/176.gcc.00-scilab-ref.eio.gz
sim: command line: ./sim-outorder -config ../configs/current.config ../benchmarks/176.gcc.00-scilab-ref.eio.gz 

sim: simulation started @ Tue Nov 24 12:44:19 2015, options follow:

sim-outorder: This simulator implements a very detailed out-of-order issue
superscalar processor with a two-level memory system and speculative
execution support.  This simulator is a performance simulator, tracking the
latency of all pipeline operations.

# -config                     # load configuration from a file
# -dumpconfig                 # dump configuration to a file
# -h                    false # print help message    
# -v                    false # verbose operation     
# -d                    false # enable debug message  
# -i                    false # start in Dlite debugger
-seed                       1 # random number generator seed (0 for timer seed)
# -q                    false # initialize and terminate immediately
# -chkpt               <null> # restore EIO trace execution from <fname>
# -redir:sim     ../results/27_26_fus/176.gcc.00-scilab-ref.eio.gz.out # redirect simulator output to file (non-interactive only)
# -redir:prog       /dev/null # redirect simulated program output to file
-nice                       0 # simulator scheduling priority
-freq            600000000.0000 # frequency             
-max:inst           100000000 # maximum number of inst's to execute
-fastfwd                    0 # number of insts skipped before timing starts
# -ptrace              <null> # generate pipetrace, i.e., <fname|stdout|stderr> <range>
-fetch:ifqsize             16 # instruction fetch queue size (in insts)
-fetch:mplat               15 # extra branch mis-prediction latency
-fetch:speed                1 # speed of front-end of machine relative to execution core
-bpred                perfect # branch predictor type {nottaken|taken|perfect|bimod|2lev|comb}
-bpred:bimod     2048 # bimodal predictor config (<table size>)
-bpred:2lev      1 1024 4 0 # 2-level predictor config (<l1size> <l2size> <hist_size> <xor>)
-bpred:comb      1024 # combining predictor config (<meta_table_size>)
-bpred:ras                  8 # return address stack size (0 for no return stack)
-bpred:btb       512 4 # BTB config (<num_sets> <associativity>)
# -bpred:spec_update       <null> # speculative predictors update in {ID|WB} (default non-spec)
-decode:width              16 # instruction decode B/W (insts/cycle)
-issue:width               16 # instruction issue B/W (insts/cycle)
-issue:inorder          false # run pipeline with in-order issue
-issue:wrongpath         true # issue instructions down wrong execution paths
-commit:width              16 # instruction commit B/W (insts/cycle)
-ruu:size                 128 # register update unit (RUU) size
-lsq:size                  64 # load/store queue (LSQ) size
-cache:dl1       dl1:32:64:8:f # l1 data cache config, i.e., {<config>|none}
-cache:dl1lat               1 # l1 data cache hit latency (in cycles)
-cache:dl2       dl2:256:64:8:f # l2 data cache config, i.e., {<config>|none}
-cache:dl2lat               2 # l2 data cache hit latency (in cycles)
-cache:il1       il1:32:64:8:f # l1 inst cache config, i.e., {<config>|dl1|dl2|none}
-cache:il1lat               1 # l1 instruction cache hit latency (in cycles)
-cache:il2                dl2 # l2 instruction cache config, i.e., {<config>|dl2|none}
-cache:il2lat               2 # l2 instruction cache hit latency (in cycles)
-cache:flush            false # flush caches on system calls
-cache:icompress        false # convert 64-bit inst addresses to 32-bit inst equivalents
-mem:lat         103 1 # memory access latency (<first_chunk> <inter_chunk>)
-mem:width                  8 # memory access bus width (in bytes)
-tlb:itlb        itlb:16:4096:4:l # instruction TLB config, i.e., {<config>|none}
-tlb:dtlb        dtlb:32:4096:4:l # data TLB config, i.e., {<config>|none}
-tlb:lat                   30 # inst/data TLB miss latency (in cycles)
-res:ialu                   2 # total number of integer ALU's available
-res:imult                  1 # total number of integer multiplier/dividers available
-res:memport                2 # total number of memory system ports available (to CPU)
-res:fpalu                  4 # total number of floating point ALU's available
-res:fpmult                 1 # total number of floating point multiplier/dividers available
# -pcstat              <null> # profile stat(s) against text addr's (mult uses ok)
-bugcompat              false # operate in backward-compatible bugs mode (for testing only)

  Pipetrace range arguments are formatted as follows:

    {{@|#}<start>}:{{@|#|+}<end>}

  Both ends of the range are optional, if neither are specified, the entire
  execution is traced.  Ranges that start with a `@' designate an address
  range to be traced, those that start with an `#' designate a cycle count
  range.  All other range values represent an instruction count range.  The
  second argument, if specified with a `+', indicates a value relative
  to the first argument, e.g., 1000:+100 == 1000:1100.  Program symbols may
  be used in all contexts.

    Examples:   -ptrace FOO.trc #0:#1000
                -ptrace BAR.trc @2000:
                -ptrace BLAH.trc :1500
                -ptrace UXXE.trc :
                -ptrace FOOBAR.trc @main:+278

  Branch predictor configuration examples for 2-level predictor:
    Configurations:   N, M, W, X
      N   # entries in first level (# of shift register(s))
      W   width of shift register(s)
      M   # entries in 2nd level (# of counters, or other FSM)
      X   (yes-1/no-0) xor history and address for 2nd level index
    Sample predictors:
      GAg     : 1, W, 2^W, 0
      GAp     : 1, W, M (M > 2^W), 0
      PAg     : N, W, 2^W, 0
      PAp     : N, W, M (M == 2^(N+W)), 0
      gshare  : 1, W, 2^W, 1
  Predictor `comb' combines a bimodal and a 2-level predictor.

  The cache config parameter <config> has the following format:

    <name>:<nsets>:<bsize>:<assoc>:<repl>

    <name>   - name of the cache being defined
    <nsets>  - number of sets in the cache
    <bsize>  - block size of the cache
    <assoc>  - associativity of the cache
    <repl>   - block replacement strategy, 'l'-LRU, 'f'-FIFO, 'r'-random

    Examples:   -cache:dl1 dl1:4096:32:1:l
                -dtlb dtlb:128:4096:32:r

  Cache levels can be unified by pointing a level of the instruction cache
  hierarchy at the data cache hiearchy using the "dl1" and "dl2" cache
  configuration arguments.  Most sensible combinations are supported, e.g.,

    A unified l2 cache (il2 is pointed at dl2):
      -cache:il1 il1:128:64:1:l -cache:il2 dl2
      -cache:dl1 dl1:256:32:1:l -cache:dl2 ul2:1024:64:2:l

    Or, a fully unified cache hierarchy (il1 pointed at dl1):
      -cache:il1 dl1
      -cache:dl1 ul1:256:32:1:l -cache:dl2 ul2:1024:64:2:l



sim: ** starting performance simulation **

sim: ** simulation statistics **
sim_num_insn              100000002 # total number of instructions committed
sim_num_refs               40836497 # total number of loads and stores committed
sim_num_loads              31266712 # total number of loads committed
sim_num_stores         9569785.0000 # total number of stores committed
sim_num_branches           14837495 # total number of branches committed
sim_elapsed_time                267 # total simulation time in seconds
sim_inst_rate           374531.8427 # simulation speed (in insts/sec)
sim_total_insn            100000002 # total number of instructions executed
sim_total_refs             40836497 # total number of loads and stores executed
sim_total_loads            31266712 # total number of loads executed
sim_total_stores       9569785.0000 # total number of stores executed
sim_total_branches         14837495 # total number of branches executed
sim_cycle                  61972579 # total simulation time in cycles
sim_IPC                      1.6136 # instructions per cycle
sim_CPI                      0.6197 # cycles per instruction
sim_exec_BW                  1.6136 # total instructions (mis-spec + committed) per cycle
sim_IPB                      6.7397 # instruction per branch
IFQ_count                 782602381 # cumulative IFQ occupancy
IFQ_fcount                 47999966 # cumulative IFQ full count
ifq_occupancy               12.6282 # avg IFQ occupancy (insn's)
ifq_rate                     1.6136 # avg IFQ dispatch rate (insn/cycle)
ifq_latency                  7.8260 # avg IFQ occupant latency (cycle's)
ifq_full                     0.7745 # fraction of time (cycle's) IFQ was full
RUU_count                6284716960 # cumulative RUU occupancy
RUU_fcount                 32302253 # cumulative RUU full count
ruu_occupancy              101.4113 # avg RUU occupancy (insn's)
ruu_rate                     1.6136 # avg RUU dispatch rate (insn/cycle)
ruu_latency                 62.8472 # avg RUU occupant latency (cycle's)
ruu_full                     0.5212 # fraction of time (cycle's) RUU was full
LSQ_count                2480607689 # cumulative LSQ occupancy
LSQ_fcount                 10448557 # cumulative LSQ full count
lsq_occupancy               40.0275 # avg LSQ occupancy (insn's)
lsq_rate                     1.6136 # avg LSQ dispatch rate (insn/cycle)
lsq_latency                 24.8061 # avg LSQ occupant latency (cycle's)
lsq_full                     0.1686 # fraction of time (cycle's) LSQ was full
sim_slip                 8906158371 # total number of slip cycles
avg_sim_slip                89.0616 # the average slip between issue and retirement
il1.accesses              229435680 # total number of accesses
il1.hits                  227821090 # total number of hits
il1.misses                  1614590 # total number of misses
il1.replacements            1614334 # total number of replacements
il1.writebacks                    0 # total number of writebacks
il1.invalidations                 0 # total number of invalidations
il1.miss_rate                0.0070 # miss rate (i.e., misses/ref)
il1.repl_rate                0.0070 # replacement rate (i.e., repls/ref)
il1.wb_rate                  0.0000 # writeback rate (i.e., wrbks/ref)
il1.inv_rate                 0.0000 # invalidation rate (i.e., invs/ref)
dl1.accesses               40180325 # total number of accesses
dl1.hits                   39602090 # total number of hits
dl1.misses                   578235 # total number of misses
dl1.replacements             577979 # total number of replacements
dl1.writebacks               443326 # total number of writebacks
dl1.invalidations                 0 # total number of invalidations
dl1.miss_rate                0.0144 # miss rate (i.e., misses/ref)
dl1.repl_rate                0.0144 # replacement rate (i.e., repls/ref)
dl1.wb_rate                  0.0110 # writeback rate (i.e., wrbks/ref)
dl1.inv_rate                 0.0000 # invalidation rate (i.e., invs/ref)
dl2.accesses                2636151 # total number of accesses
dl2.hits                    2360982 # total number of hits
dl2.misses                   275169 # total number of misses
dl2.replacements             273121 # total number of replacements
dl2.writebacks               113786 # total number of writebacks
dl2.invalidations                 0 # total number of invalidations
dl2.miss_rate                0.1044 # miss rate (i.e., misses/ref)
dl2.repl_rate                0.1036 # replacement rate (i.e., repls/ref)
dl2.wb_rate                  0.0432 # writeback rate (i.e., wrbks/ref)
dl2.inv_rate                 0.0000 # invalidation rate (i.e., invs/ref)
itlb.accesses             229435680 # total number of accesses
itlb.hits                 229426472 # total number of hits
itlb.misses                    9208 # total number of misses
itlb.replacements              9144 # total number of replacements
itlb.writebacks                   0 # total number of writebacks
itlb.invalidations                0 # total number of invalidations
itlb.miss_rate               0.0000 # miss rate (i.e., misses/ref)
itlb.repl_rate               0.0000 # replacement rate (i.e., repls/ref)
itlb.wb_rate                 0.0000 # writeback rate (i.e., wrbks/ref)
itlb.inv_rate                0.0000 # invalidation rate (i.e., invs/ref)
dtlb.accesses              40836435 # total number of accesses
dtlb.hits                  40825055 # total number of hits
dtlb.misses                   11380 # total number of misses
dtlb.replacements             11252 # total number of replacements
dtlb.writebacks                   0 # total number of writebacks
dtlb.invalidations                0 # total number of invalidations
dtlb.miss_rate               0.0003 # miss rate (i.e., misses/ref)
dtlb.repl_rate               0.0003 # replacement rate (i.e., repls/ref)
dtlb.wb_rate                 0.0000 # writeback rate (i.e., wrbks/ref)
dtlb.inv_rate                0.0000 # invalidation rate (i.e., invs/ref)
rename_power           228369848.1146 # total power usage of rename unit
bpred_power            176524223.0367 # total power usage of bpred unit
window_power           4737219786.2051 # total power usage of instruction window
lsq_power              274657255.5662 # total power usage of load/store queue
regfile_power          1557912717.0216 # total power usage of arch. regfile
icache_power           187942021.0815 # total power usage of icache
dcache_power           399035119.1000 # total power usage of dcache
dcache2_power          192299473.0028 # total power usage of dcache2
alu_power              1029433338.3183 # total power usage of alu
falu_power             885033186.8480 # total power usage of falu
resultbus_power        3207293374.4577 # total power usage of resultbus
clock_power            3320379162.3450 # total power usage of clock
avg_rename_power             3.6850 # avg power usage of rename unit
avg_bpred_power              2.8484 # avg power usage of bpred unit
avg_window_power            76.4406 # avg power usage of instruction window
avg_lsq_power                4.4319 # avg power usage of lsq
avg_regfile_power           25.1387 # avg power usage of arch. regfile
avg_icache_power             3.0327 # avg power usage of icache
avg_dcache_power             6.4389 # avg power usage of dcache
avg_dcache2_power            3.1030 # avg power usage of dcache2
avg_alu_power               16.6111 # avg power usage of alu
avg_falu_power              14.2810 # avg power usage of falu
avg_resultbus_power         51.7534 # avg power usage of resultbus
avg_clock_power             53.5782 # avg power usage of clock
fetch_stage_power      364466244.1183 # total power usage of fetch stage
dispatch_stage_power   228369848.1146 # total power usage of dispatch stage
issue_stage_power      9839938346.6503 # total power usage of issue stage
avg_fetch_power              5.8811 # average power of fetch unit per cycle
avg_dispatch_power           3.6850 # average power of dispatch unit per cycle
avg_issue_power            158.7789 # average power of issue unit per cycle
total_power            15311066318.2497 # total power per cycle
avg_total_power_cycle      247.0620 # average total power per cycle
avg_total_power_cycle_nofp_nod2     229.6779 # average total power per cycle
avg_total_power_insn       153.1107 # average total power per insn
avg_total_power_insn_nofp_nod2     142.3373 # average total power per insn
rename_power_cc1       142872487.0553 # total power usage of rename unit_cc1
bpred_power_cc1              0.0000 # total power usage of bpred unit_cc1
window_power_cc1       3501358925.7739 # total power usage of instruction window_cc1
lsq_power_cc1          79424432.1821 # total power usage of lsq_cc1
regfile_power_cc1      945952096.7686 # total power usage of arch. regfile_cc1
icache_power_cc1       118507051.7429 # total power usage of icache_cc1
dcache_power_cc1       174441422.0831 # total power usage of dcache_cc1
dcache2_power_cc1      6772408.1598 # total power usage of dcache2_cc1
alu_power_cc1          116769342.4419 # total power usage of alu_cc1
resultbus_power_cc1    2352710288.5115 # total power usage of resultbus_cc1
clock_power_cc1        2262141485.4891 # total power usage of clock_cc1
avg_rename_power_cc1         2.3054 # avg power usage of rename unit_cc1
avg_bpred_power_cc1          0.0000 # avg power usage of bpred unit_cc1
avg_window_power_cc1        56.4985 # avg power usage of instruction window_cc1
avg_lsq_power_cc1            1.2816 # avg power usage of lsq_cc1
avg_regfile_power_cc1       15.2640 # avg power usage of arch. regfile_cc1
avg_icache_power_cc1         1.9122 # avg power usage of icache_cc1
avg_dcache_power_cc1         2.8148 # avg power usage of dcache_cc1
avg_dcache2_power_cc1        0.1093 # avg power usage of dcache2_cc1
avg_alu_power_cc1            1.8842 # avg power usage of alu_cc1
avg_resultbus_power_cc1      37.9637 # avg power usage of resultbus_cc1
avg_clock_power_cc1         36.5023 # avg power usage of clock_cc1
fetch_stage_power_cc1  118507051.7429 # total power usage of fetch stage_cc1
dispatch_stage_power_cc1 142872487.0553 # total power usage of dispatch stage_cc1
issue_stage_power_cc1  6231476819.1523 # total power usage of issue stage_cc1
avg_fetch_power_cc1          1.9122 # average power of fetch unit per cycle_cc1
avg_dispatch_power_cc1       2.3054 # average power of dispatch unit per cycle_cc1
avg_issue_power_cc1        100.5522 # average power of issue unit per cycle_cc1
total_power_cycle_cc1  9700949940.2081 # total power per cycle_cc1
avg_total_power_cycle_cc1     156.5362 # average total power per cycle_cc1
avg_total_power_insn_cc1      97.0095 # average total power per insn_cc1
rename_power_cc2       23031340.6881 # total power usage of rename unit_cc2
bpred_power_cc2              0.0000 # total power usage of bpred unit_cc2
window_power_cc2       718530245.1639 # total power usage of instruction window_cc2
lsq_power_cc2          51403093.3149 # total power usage of lsq_cc2
regfile_power_cc2      50190685.0991 # total power usage of arch. regfile_cc2
icache_power_cc2       118507051.7429 # total power usage of icache_cc2
dcache_power_cc2       129358508.2817 # total power usage of dcache_cc2
dcache2_power_cc2      4089957.6603 # total power usage of dcache2_cc2
alu_power_cc2          116148766.3242 # total power usage of alu_cc2
resultbus_power_cc2    353062816.1907 # total power usage of resultbus_cc2
clock_power_cc2        457443157.7016 # total power usage of clock_cc2
avg_rename_power_cc2         0.3716 # avg power usage of rename unit_cc2
avg_bpred_power_cc2          0.0000 # avg power usage of bpred unit_cc2
avg_window_power_cc2        11.5943 # avg power usage of instruction window_cc2
avg_lsq_power_cc2            0.8294 # avg power usage of instruction lsq_cc2
avg_regfile_power_cc2        0.8099 # avg power usage of arch. regfile_cc2
avg_icache_power_cc2         1.9122 # avg power usage of icache_cc2
avg_dcache_power_cc2         2.0874 # avg power usage of dcache_cc2
avg_dcache2_power_cc2        0.0660 # avg power usage of dcache2_cc2
avg_alu_power_cc2            1.8742 # avg power usage of alu_cc2
avg_resultbus_power_cc2       5.6971 # avg power usage of resultbus_cc2
avg_clock_power_cc2          7.3814 # avg power usage of clock_cc2
fetch_stage_power_cc2  118507051.7429 # total power usage of fetch stage_cc2
dispatch_stage_power_cc2 23031340.6881 # total power usage of dispatch stage_cc2
issue_stage_power_cc2  1372593386.9356 # total power usage of issue stage_cc2
avg_fetch_power_cc2          1.9122 # average power of fetch unit per cycle_cc2
avg_dispatch_power_cc2       0.3716 # average power of dispatch unit per cycle_cc2
avg_issue_power_cc2         22.1484 # average power of issue unit per cycle_cc2
total_power_cycle_cc2  2021765622.1673 # total power per cycle_cc2
avg_total_power_cycle_cc2      32.6236 # average total power per cycle_cc2
avg_total_power_insn_cc2      20.2177 # average total power per insn_cc2
rename_power_cc3       31581076.8107 # total power usage of rename unit_cc3
bpred_power_cc3        17652422.2908 # total power usage of bpred unit_cc3
window_power_cc3       809353484.3535 # total power usage of instruction window_cc3
lsq_power_cc3          70828363.9446 # total power usage of lsq_cc3
regfile_power_cc3      102506482.5597 # total power usage of arch. regfile_cc3
icache_power_cc3       125450548.7360 # total power usage of icache_cc3
dcache_power_cc3       152232051.0213 # total power usage of dcache_cc3
dcache2_power_cc3      22645016.5028 # total power usage of dcache2_cc3
alu_power_cc3          207415165.6368 # total power usage of alu_cc3
resultbus_power_cc3    422836668.0072 # total power usage of resultbus_cc3
clock_power_cc3        546518981.9211 # total power usage of clock_cc3
avg_rename_power_cc3         0.5096 # avg power usage of rename unit_cc3
avg_bpred_power_cc3          0.2848 # avg power usage of bpred unit_cc3
avg_window_power_cc3        13.0599 # avg power usage of instruction window_cc3
avg_lsq_power_cc3            1.1429 # avg power usage of instruction lsq_cc3
avg_regfile_power_cc3        1.6541 # avg power usage of arch. regfile_cc3
avg_icache_power_cc3         2.0243 # avg power usage of icache_cc3
avg_dcache_power_cc3         2.4564 # avg power usage of dcache_cc3
avg_dcache2_power_cc3        0.3654 # avg power usage of dcache2_cc3
avg_alu_power_cc3            3.3469 # avg power usage of alu_cc3
avg_resultbus_power_cc3       6.8230 # avg power usage of resultbus_cc3
avg_clock_power_cc3          8.8187 # avg power usage of clock_cc3
fetch_stage_power_cc3  143102971.0268 # total power usage of fetch stage_cc3
dispatch_stage_power_cc3 31581076.8107 # total power usage of dispatch stage_cc3
issue_stage_power_cc3  1685310749.4662 # total power usage of issue stage_cc3
avg_fetch_power_cc3          2.3091 # average power of fetch unit per cycle_cc3
avg_dispatch_power_cc3       0.5096 # average power of dispatch unit per cycle_cc3
avg_issue_power_cc3         27.1945 # average power of issue unit per cycle_cc3
total_power_cycle_cc3  2509020261.7846 # total power per cycle_cc3
avg_total_power_cycle_cc3      40.4860 # average total power per cycle_cc3
avg_total_power_insn_cc3      25.0902 # average total power per insn_cc3
total_rename_access       100000002 # total number accesses of rename unit
total_bpred_access                0 # total number accesses of bpred unit
total_window_access       357978924 # total number accesses of instruction window
total_lsq_access           41492546 # total number accesses of load/store queue
total_regfile_access      105594981 # total number accesses of arch. regfile
total_icache_access       229435680 # total number accesses of icache
total_dcache_access        40180325 # total number accesses of dcache
total_dcache2_access        2636151 # total number accesses of dcache2
total_alu_access           99645704 # total number accesses of alu
total_resultbus_access    116429108 # total number accesses of resultbus
avg_rename_access            1.6136 # avg number accesses of rename unit
avg_bpred_access             0.0000 # avg number accesses of bpred unit
avg_window_access            5.7764 # avg number accesses of instruction window
avg_lsq_access               0.6695 # avg number accesses of lsq
avg_regfile_access           1.7039 # avg number accesses of arch. regfile
avg_icache_access            3.7022 # avg number accesses of icache
avg_dcache_access            0.6484 # avg number accesses of dcache
avg_dcache2_access           0.0425 # avg number accesses of dcache2
avg_alu_access               1.6079 # avg number accesses of alu
avg_resultbus_access         1.8787 # avg number accesses of resultbus
max_rename_access                16 # max number accesses of rename unit
max_bpred_access                  0 # max number accesses of bpred unit
max_window_access                42 # max number accesses of instruction window
max_lsq_access                   10 # max number accesses of load/store queue
max_regfile_access               41 # max number accesses of arch. regfile
max_icache_access                16 # max number accesses of icache
max_dcache_access                 4 # max number accesses of dcache
max_dcache2_access                8 # max number accesses of dcache2
max_alu_access                    4 # max number accesses of alu
max_resultbus_access             42 # max number accesses of resultbus
max_cycle_power_cc1        253.6738 # maximum cycle power usage of cc1
max_cycle_power_cc2        213.8505 # maximum cycle power usage of cc2
max_cycle_power_cc3        221.2130 # maximum cycle power usage of cc3
sim_invalid_addrs                 0 # total non-speculative bogus addresses seen (debug var)
ld_text_base           0x0120000000 # program text (code) segment base
ld_text_size                1990656 # program text (code) size in bytes
ld_data_base           0x0140000000 # program initialized data segment base
ld_data_size                 306320 # program init'ed `.data' and uninit'ed `.bss' size in bytes
ld_stack_base          0x011ff9b000 # program stack segment base (highest address in stack)
ld_stack_size                 16384 # program initial stack size
ld_prog_entry          0x0120128140 # program entry point (initial PC)
ld_environ_base        0x011ff7f0b0 # program environment base address address
ld_target_big_endian              0 # target executable endian-ness, non-zero if big endian
mem.page_count                 5831 # total number of pages allocated
mem.page_mem                 46648k # total size of memory pages allocated
mem.ptab_misses               56866 # total first level page table misses
mem.ptab_accesses        1076627486 # total page table accesses
mem.ptab_miss_rate           0.0001 # first level page table miss rate

