sim-outorder: SimpleScalar/Alpha Tool Set version 3.0 of August, 2003.
Copyright (c) 1994-2003 by Todd M. Austin, Ph.D. and SimpleScalar, LLC.
All Rights Reserved. This version of SimpleScalar is licensed for academic
non-commercial use.  No portion of this work may be used by any commercial
entity, or for any commercial purpose, without the prior written permission
of SimpleScalar, LLC (info@simplescalar.com).


Processor Parameters:
Issue Width: 16
Window Size: 128
Number of Virtual Registers: 32
Number of Physical Registers: 128
Datapath Width: 64
Total Power Consumption: 249.062
Branch Predictor Power Consumption: 2.84842  (1.15%)
 branch target buffer power (W): 2.49493
 local predict power (W): 0.0867068
 global predict power (W): 0.0996078
 chooser power (W): 0.0702439
 RAS power (W): 0.0969383
Rename Logic Power Consumption: 3.68501  (1.49%)
 Instruction Decode Power (W): 0.0639661
 RAT decode_power (W): 0.454058
 RAT wordline_power (W): 0.257408
 RAT bitline_power (W): 2.69143
 DCL Comparators (W): 0.218151
Instruction Window Power Consumption: 76.4406  (30.9%)
 tagdrive (W): 6.64903
 tagmatch (W): 2.27024
 Selection Logic (W): 0.461706
 decode_power (W): 2.17466
 wordline_power (W): 1.0557
 bitline_power (W): 63.8292
Load/Store Queue Power Consumption: 4.43192  (1.79%)
 tagdrive (W): 1.99569
 tagmatch (W): 0.80629
 decode_power (W): 0.0813819
 wordline_power (W): 0.0150119
 bitline_power (W): 1.53354
Arch. Register File Power Consumption: 25.1387  (10.2%)
 decode_power (W): 0.454058
 wordline_power (W): 1.0557
 bitline_power (W): 23.629
Result Bus Power Consumption: 51.7534  (20.9%)
Total Clock Power: 53.5782  (21.7%)
Int ALU Power: 2.33007  (0.943%)
FP ALU Power: 14.281  (5.78%)
Instruction Cache Power Consumption: 2.76773  (1.12%)
 decode_power (W): 0.151353
 wordline_power (W): 0.180479
 bitline_power (W): 1.42251
 senseamp_power (W): 0.768
 tagarray_power (W): 0.245382
Itlb_power (W): 0.264936 (0.107%)
Data Cache Power Consumption: 5.53546  (2.24%)
 decode_power (W): 0.302705
 wordline_power (W): 0.360958
 bitline_power (W): 2.84503
 senseamp_power (W): 1.536
 tagarray_power (W): 0.490764
Dtlb_power (W): 0.903441 (0.366%)
Level 2 Cache Power Consumption: 3.10298 (1.26%)
 decode_power (W): 0.19487
 wordline_power (W): 0.0430878
 bitline_power (W): 1.77274
 senseamp_power (W): 0.192
 tagarray_power (W): 0.900275
sim: loading EIO file: ../benchmarks/188.ammp.spec_ref.eio.gz
sim: command line: ./sim-outorder -config ../configs/current.config ../benchmarks/188.ammp.spec_ref.eio.gz 

sim: simulation started @ Tue Nov 24 12:44:17 2015, options follow:

sim-outorder: This simulator implements a very detailed out-of-order issue
superscalar processor with a two-level memory system and speculative
execution support.  This simulator is a performance simulator, tracking the
latency of all pipeline operations.

# -config                     # load configuration from a file
# -dumpconfig                 # dump configuration to a file
# -h                    false # print help message    
# -v                    false # verbose operation     
# -d                    false # enable debug message  
# -i                    false # start in Dlite debugger
-seed                       1 # random number generator seed (0 for timer seed)
# -q                    false # initialize and terminate immediately
# -chkpt               <null> # restore EIO trace execution from <fname>
# -redir:sim     ../results/27_26_fus/188.ammp.spec_ref.eio.gz.out # redirect simulator output to file (non-interactive only)
# -redir:prog       /dev/null # redirect simulated program output to file
-nice                       0 # simulator scheduling priority
-freq            600000000.0000 # frequency             
-max:inst           100000000 # maximum number of inst's to execute
-fastfwd                    0 # number of insts skipped before timing starts
# -ptrace              <null> # generate pipetrace, i.e., <fname|stdout|stderr> <range>
-fetch:ifqsize             16 # instruction fetch queue size (in insts)
-fetch:mplat               15 # extra branch mis-prediction latency
-fetch:speed                1 # speed of front-end of machine relative to execution core
-bpred                perfect # branch predictor type {nottaken|taken|perfect|bimod|2lev|comb}
-bpred:bimod     2048 # bimodal predictor config (<table size>)
-bpred:2lev      1 1024 4 0 # 2-level predictor config (<l1size> <l2size> <hist_size> <xor>)
-bpred:comb      1024 # combining predictor config (<meta_table_size>)
-bpred:ras                  8 # return address stack size (0 for no return stack)
-bpred:btb       512 4 # BTB config (<num_sets> <associativity>)
# -bpred:spec_update       <null> # speculative predictors update in {ID|WB} (default non-spec)
-decode:width              16 # instruction decode B/W (insts/cycle)
-issue:width               16 # instruction issue B/W (insts/cycle)
-issue:inorder          false # run pipeline with in-order issue
-issue:wrongpath         true # issue instructions down wrong execution paths
-commit:width              16 # instruction commit B/W (insts/cycle)
-ruu:size                 128 # register update unit (RUU) size
-lsq:size                  64 # load/store queue (LSQ) size
-cache:dl1       dl1:32:64:8:f # l1 data cache config, i.e., {<config>|none}
-cache:dl1lat               1 # l1 data cache hit latency (in cycles)
-cache:dl2       dl2:256:64:8:f # l2 data cache config, i.e., {<config>|none}
-cache:dl2lat               2 # l2 data cache hit latency (in cycles)
-cache:il1       il1:32:64:8:f # l1 inst cache config, i.e., {<config>|dl1|dl2|none}
-cache:il1lat               1 # l1 instruction cache hit latency (in cycles)
-cache:il2                dl2 # l2 instruction cache config, i.e., {<config>|dl2|none}
-cache:il2lat               2 # l2 instruction cache hit latency (in cycles)
-cache:flush            false # flush caches on system calls
-cache:icompress        false # convert 64-bit inst addresses to 32-bit inst equivalents
-mem:lat         103 1 # memory access latency (<first_chunk> <inter_chunk>)
-mem:width                  8 # memory access bus width (in bytes)
-tlb:itlb        itlb:16:4096:4:l # instruction TLB config, i.e., {<config>|none}
-tlb:dtlb        dtlb:32:4096:4:l # data TLB config, i.e., {<config>|none}
-tlb:lat                   30 # inst/data TLB miss latency (in cycles)
-res:ialu                   2 # total number of integer ALU's available
-res:imult                  1 # total number of integer multiplier/dividers available
-res:memport                2 # total number of memory system ports available (to CPU)
-res:fpalu                  4 # total number of floating point ALU's available
-res:fpmult                 1 # total number of floating point multiplier/dividers available
# -pcstat              <null> # profile stat(s) against text addr's (mult uses ok)
-bugcompat              false # operate in backward-compatible bugs mode (for testing only)

  Pipetrace range arguments are formatted as follows:

    {{@|#}<start>}:{{@|#|+}<end>}

  Both ends of the range are optional, if neither are specified, the entire
  execution is traced.  Ranges that start with a `@' designate an address
  range to be traced, those that start with an `#' designate a cycle count
  range.  All other range values represent an instruction count range.  The
  second argument, if specified with a `+', indicates a value relative
  to the first argument, e.g., 1000:+100 == 1000:1100.  Program symbols may
  be used in all contexts.

    Examples:   -ptrace FOO.trc #0:#1000
                -ptrace BAR.trc @2000:
                -ptrace BLAH.trc :1500
                -ptrace UXXE.trc :
                -ptrace FOOBAR.trc @main:+278

  Branch predictor configuration examples for 2-level predictor:
    Configurations:   N, M, W, X
      N   # entries in first level (# of shift register(s))
      W   width of shift register(s)
      M   # entries in 2nd level (# of counters, or other FSM)
      X   (yes-1/no-0) xor history and address for 2nd level index
    Sample predictors:
      GAg     : 1, W, 2^W, 0
      GAp     : 1, W, M (M > 2^W), 0
      PAg     : N, W, 2^W, 0
      PAp     : N, W, M (M == 2^(N+W)), 0
      gshare  : 1, W, 2^W, 1
  Predictor `comb' combines a bimodal and a 2-level predictor.

  The cache config parameter <config> has the following format:

    <name>:<nsets>:<bsize>:<assoc>:<repl>

    <name>   - name of the cache being defined
    <nsets>  - number of sets in the cache
    <bsize>  - block size of the cache
    <assoc>  - associativity of the cache
    <repl>   - block replacement strategy, 'l'-LRU, 'f'-FIFO, 'r'-random

    Examples:   -cache:dl1 dl1:4096:32:1:l
                -dtlb dtlb:128:4096:32:r

  Cache levels can be unified by pointing a level of the instruction cache
  hierarchy at the data cache hiearchy using the "dl1" and "dl2" cache
  configuration arguments.  Most sensible combinations are supported, e.g.,

    A unified l2 cache (il2 is pointed at dl2):
      -cache:il1 il1:128:64:1:l -cache:il2 dl2
      -cache:dl1 dl1:256:32:1:l -cache:dl2 ul2:1024:64:2:l

    Or, a fully unified cache hierarchy (il1 pointed at dl1):
      -cache:il1 dl1
      -cache:dl1 ul1:256:32:1:l -cache:dl2 ul2:1024:64:2:l



sim: ** starting performance simulation **

sim: ** simulation statistics **
sim_num_insn              100000008 # total number of instructions committed
sim_num_refs               37857581 # total number of loads and stores committed
sim_num_loads              27467389 # total number of loads committed
sim_num_stores         10390192.0000 # total number of stores committed
sim_num_branches            7387518 # total number of branches committed
sim_elapsed_time                213 # total simulation time in seconds
sim_inst_rate           469483.6056 # simulation speed (in insts/sec)
sim_total_insn            100000008 # total number of instructions executed
sim_total_refs             37857581 # total number of loads and stores executed
sim_total_loads            27467389 # total number of loads executed
sim_total_stores       10390192.0000 # total number of stores executed
sim_total_branches          7387518 # total number of branches executed
sim_cycle                  80989258 # total simulation time in cycles
sim_IPC                      1.2347 # instructions per cycle
sim_CPI                      0.8099 # cycles per instruction
sim_exec_BW                  1.2347 # total instructions (mis-spec + committed) per cycle
sim_IPB                     13.5363 # instruction per branch
IFQ_count                1295692394 # cumulative IFQ occupancy
IFQ_fcount                 80980677 # cumulative IFQ full count
ifq_occupancy               15.9983 # avg IFQ occupancy (insn's)
ifq_rate                     1.2347 # avg IFQ dispatch rate (insn/cycle)
ifq_latency                 12.9569 # avg IFQ occupant latency (cycle's)
ifq_full                     0.9999 # fraction of time (cycle's) IFQ was full
RUU_count               10196524524 # cumulative RUU occupancy
RUU_fcount                 72999211 # cumulative RUU full count
ruu_occupancy              125.8997 # avg RUU occupancy (insn's)
ruu_rate                     1.2347 # avg RUU dispatch rate (insn/cycle)
ruu_latency                101.9652 # avg RUU occupant latency (cycle's)
ruu_full                     0.9013 # fraction of time (cycle's) RUU was full
LSQ_count                3848899283 # cumulative LSQ occupancy
LSQ_fcount                  5089226 # cumulative LSQ full count
lsq_occupancy               47.5236 # avg LSQ occupancy (insn's)
lsq_rate                     1.2347 # avg LSQ dispatch rate (insn/cycle)
lsq_latency                 38.4890 # avg LSQ occupant latency (cycle's)
lsq_full                     0.0628 # fraction of time (cycle's) LSQ was full
sim_slip                14183277221 # total number of slip cycles
avg_sim_slip               141.8328 # the average slip between issue and retirement
il1.accesses              132456461 # total number of accesses
il1.hits                  132456383 # total number of hits
il1.misses                       78 # total number of misses
il1.replacements                  0 # total number of replacements
il1.writebacks                    0 # total number of writebacks
il1.invalidations                 0 # total number of invalidations
il1.miss_rate                0.0000 # miss rate (i.e., misses/ref)
il1.repl_rate                0.0000 # replacement rate (i.e., repls/ref)
il1.wb_rate                  0.0000 # writeback rate (i.e., wrbks/ref)
il1.inv_rate                 0.0000 # invalidation rate (i.e., invs/ref)
dl1.accesses               36836568 # total number of accesses
dl1.hits                   34567067 # total number of hits
dl1.misses                  2269501 # total number of misses
dl1.replacements            2269245 # total number of replacements
dl1.writebacks               536638 # total number of writebacks
dl1.invalidations                 0 # total number of invalidations
dl1.miss_rate                0.0616 # miss rate (i.e., misses/ref)
dl1.repl_rate                0.0616 # replacement rate (i.e., repls/ref)
dl1.wb_rate                  0.0146 # writeback rate (i.e., wrbks/ref)
dl1.inv_rate                 0.0000 # invalidation rate (i.e., invs/ref)
dl2.accesses                2806217 # total number of accesses
dl2.hits                    1359239 # total number of hits
dl2.misses                  1446978 # total number of misses
dl2.replacements            1444930 # total number of replacements
dl2.writebacks               429111 # total number of writebacks
dl2.invalidations                 0 # total number of invalidations
dl2.miss_rate                0.5156 # miss rate (i.e., misses/ref)
dl2.repl_rate                0.5149 # replacement rate (i.e., repls/ref)
dl2.wb_rate                  0.1529 # writeback rate (i.e., wrbks/ref)
dl2.inv_rate                 0.0000 # invalidation rate (i.e., invs/ref)
itlb.accesses             132456461 # total number of accesses
itlb.hits                 132456457 # total number of hits
itlb.misses                       4 # total number of misses
itlb.replacements                 0 # total number of replacements
itlb.writebacks                   0 # total number of writebacks
itlb.invalidations                0 # total number of invalidations
itlb.miss_rate               0.0000 # miss rate (i.e., misses/ref)
itlb.repl_rate               0.0000 # replacement rate (i.e., repls/ref)
itlb.wb_rate                 0.0000 # writeback rate (i.e., wrbks/ref)
itlb.inv_rate                0.0000 # invalidation rate (i.e., invs/ref)
dtlb.accesses              37857538 # total number of accesses
dtlb.hits                  37426742 # total number of hits
dtlb.misses                  430796 # total number of misses
dtlb.replacements            430668 # total number of replacements
dtlb.writebacks                   0 # total number of writebacks
dtlb.invalidations                0 # total number of invalidations
dtlb.miss_rate               0.0114 # miss rate (i.e., misses/ref)
dtlb.repl_rate               0.0114 # replacement rate (i.e., repls/ref)
dtlb.wb_rate                 0.0000 # writeback rate (i.e., wrbks/ref)
dtlb.inv_rate                0.0000 # invalidation rate (i.e., invs/ref)
rename_power           298446584.5777 # total power usage of rename unit
bpred_power            230691800.7004 # total power usage of bpred unit
window_power           6190865729.3664 # total power usage of instruction window
lsq_power              358937577.1969 # total power usage of load/store queue
regfile_power          2035968117.1319 # total power usage of arch. regfile
icache_power           245613222.3036 # total power usage of icache
dcache_power           521481577.1256 # total power usage of dcache
dcache2_power          251307786.1674 # total power usage of dcache2
alu_power              1345321489.0235 # total power usage of alu
falu_power             1156611234.6373 # total power usage of falu
resultbus_power        4191471692.4795 # total power usage of resultbus
clock_power            4339258572.0158 # total power usage of clock
avg_rename_power             3.6850 # avg power usage of rename unit
avg_bpred_power              2.8484 # avg power usage of bpred unit
avg_window_power            76.4406 # avg power usage of instruction window
avg_lsq_power                4.4319 # avg power usage of lsq
avg_regfile_power           25.1387 # avg power usage of arch. regfile
avg_icache_power             3.0327 # avg power usage of icache
avg_dcache_power             6.4389 # avg power usage of dcache
avg_dcache2_power            3.1030 # avg power usage of dcache2
avg_alu_power               16.6111 # avg power usage of alu
avg_falu_power              14.2810 # avg power usage of falu
avg_resultbus_power         51.7534 # avg power usage of resultbus
avg_clock_power             53.5782 # avg power usage of clock
fetch_stage_power      476305023.0040 # total power usage of fetch stage
dispatch_stage_power   298446584.5777 # total power usage of dispatch stage
issue_stage_power      12859385851.3593 # total power usage of issue stage
avg_fetch_power              5.8811 # average power of fetch unit per cycle
avg_dispatch_power           3.6850 # average power of dispatch unit per cycle
avg_issue_power            158.7789 # average power of issue unit per cycle
total_power            20009364148.0887 # total power per cycle
avg_total_power_cycle      247.0620 # average total power per cycle
avg_total_power_cycle_nofp_nod2     229.6779 # average total power per cycle
avg_total_power_insn       200.0936 # average total power per insn
avg_total_power_insn_nofp_nod2     186.0144 # average total power per insn
rename_power_cc1       80963227.4072 # total power usage of rename unit_cc1
bpred_power_cc1              0.0000 # total power usage of bpred unit_cc1
window_power_cc1       2965419562.7132 # total power usage of instruction window_cc1
lsq_power_cc1          74076057.9023 # total power usage of lsq_cc1
regfile_power_cc1      478134586.6883 # total power usage of arch. regfile_cc1
icache_power_cc1       66630613.4253 # total power usage of icache_cc1
dcache_power_cc1       170347734.8911 # total power usage of dcache_cc1
dcache2_power_cc1      6926052.0547 # total power usage of dcache2_cc1
alu_power_cc1          407455832.3787 # total power usage of alu_cc1
resultbus_power_cc1    1980983515.1603 # total power usage of resultbus_cc1
clock_power_cc1        1766353124.9270 # total power usage of clock_cc1
avg_rename_power_cc1         0.9997 # avg power usage of rename unit_cc1
avg_bpred_power_cc1          0.0000 # avg power usage of bpred unit_cc1
avg_window_power_cc1        36.6150 # avg power usage of instruction window_cc1
avg_lsq_power_cc1            0.9146 # avg power usage of lsq_cc1
avg_regfile_power_cc1        5.9037 # avg power usage of arch. regfile_cc1
avg_icache_power_cc1         0.8227 # avg power usage of icache_cc1
avg_dcache_power_cc1         2.1033 # avg power usage of dcache_cc1
avg_dcache2_power_cc1        0.0855 # avg power usage of dcache2_cc1
avg_alu_power_cc1            5.0310 # avg power usage of alu_cc1
avg_resultbus_power_cc1      24.4598 # avg power usage of resultbus_cc1
avg_clock_power_cc1         21.8097 # avg power usage of clock_cc1
fetch_stage_power_cc1  66630613.4253 # total power usage of fetch stage_cc1
dispatch_stage_power_cc1 80963227.4072 # total power usage of dispatch stage_cc1
issue_stage_power_cc1  5605208755.1002 # total power usage of issue stage_cc1
avg_fetch_power_cc1          0.8227 # average power of fetch unit per cycle_cc1
avg_dispatch_power_cc1       0.9997 # average power of dispatch unit per cycle_cc1
avg_issue_power_cc1         69.2093 # average power of issue unit per cycle_cc1
total_power_cycle_cc1  7997290307.5481 # total power per cycle_cc1
avg_total_power_cycle_cc1      98.7451 # average total power per cycle_cc1
avg_total_power_insn_cc1      79.9729 # average total power per insn_cc1
rename_power_cc2       23031342.0743 # total power usage of rename unit_cc2
bpred_power_cc2              0.0000 # total power usage of bpred unit_cc2
window_power_cc2       665470992.8461 # total power usage of instruction window_cc2
lsq_power_cc2          46491633.0863 # total power usage of lsq_cc2
regfile_power_cc2      64979520.6049 # total power usage of arch. regfile_cc2
icache_power_cc2       66630613.4253 # total power usage of icache_cc2
dcache_power_cc2       118593453.0569 # total power usage of dcache_cc2
dcache2_power_cc2      4353813.0842 # total power usage of dcache2_cc2
alu_power_cc2          200827754.0795 # total power usage of alu_cc2
resultbus_power_cc2    364133262.4762 # total power usage of resultbus_cc2
clock_power_cc2        439038700.0350 # total power usage of clock_cc2
avg_rename_power_cc2         0.2844 # avg power usage of rename unit_cc2
avg_bpred_power_cc2          0.0000 # avg power usage of bpred unit_cc2
avg_window_power_cc2         8.2168 # avg power usage of instruction window_cc2
avg_lsq_power_cc2            0.5740 # avg power usage of instruction lsq_cc2
avg_regfile_power_cc2        0.8023 # avg power usage of arch. regfile_cc2
avg_icache_power_cc2         0.8227 # avg power usage of icache_cc2
avg_dcache_power_cc2         1.4643 # avg power usage of dcache_cc2
avg_dcache2_power_cc2        0.0538 # avg power usage of dcache2_cc2
avg_alu_power_cc2            2.4797 # avg power usage of alu_cc2
avg_resultbus_power_cc2       4.4961 # avg power usage of resultbus_cc2
avg_clock_power_cc2          5.4209 # avg power usage of clock_cc2
fetch_stage_power_cc2  66630613.4253 # total power usage of fetch stage_cc2
dispatch_stage_power_cc2 23031342.0743 # total power usage of dispatch stage_cc2
issue_stage_power_cc2  1399870908.6293 # total power usage of issue stage_cc2
avg_fetch_power_cc2          0.8227 # average power of fetch unit per cycle_cc2
avg_dispatch_power_cc2       0.2844 # average power of dispatch unit per cycle_cc2
avg_issue_power_cc2         17.2846 # average power of issue unit per cycle_cc2
total_power_cycle_cc2  1993551084.7688 # total power per cycle_cc2
avg_total_power_cycle_cc2      24.6150 # average total power per cycle_cc2
avg_total_power_insn_cc2      19.9355 # average total power per insn_cc2
rename_power_cc3       44779677.8746 # total power usage of rename unit_cc3
bpred_power_cc3        23069180.0855 # total power usage of bpred unit_cc3
window_power_cc3       951522082.9759 # total power usage of instruction window_cc3
lsq_power_cc3          74862870.6356 # total power usage of lsq_cc3
regfile_power_cc3      213874231.9416 # total power usage of arch. regfile_cc3
icache_power_cc3       84528874.4427 # total power usage of icache_cc3
dcache_power_cc3       154206718.0956 # total power usage of dcache_cc3
dcache2_power_cc3      28795468.9305 # total power usage of dcache2_cc3
alu_power_cc3          294614319.7937 # total power usage of alu_cc3
resultbus_power_cc3    571978686.0743 # total power usage of resultbus_cc3
clock_power_cc3        680907723.7143 # total power usage of clock_cc3
avg_rename_power_cc3         0.5529 # avg power usage of rename unit_cc3
avg_bpred_power_cc3          0.2848 # avg power usage of bpred unit_cc3
avg_window_power_cc3        11.7487 # avg power usage of instruction window_cc3
avg_lsq_power_cc3            0.9244 # avg power usage of instruction lsq_cc3
avg_regfile_power_cc3        2.6408 # avg power usage of arch. regfile_cc3
avg_icache_power_cc3         1.0437 # avg power usage of icache_cc3
avg_dcache_power_cc3         1.9040 # avg power usage of dcache_cc3
avg_dcache2_power_cc3        0.3555 # avg power usage of dcache2_cc3
avg_alu_power_cc3            3.6377 # avg power usage of alu_cc3
avg_resultbus_power_cc3       7.0624 # avg power usage of resultbus_cc3
avg_clock_power_cc3          8.4074 # avg power usage of clock_cc3
fetch_stage_power_cc3  107598054.5282 # total power usage of fetch stage_cc3
dispatch_stage_power_cc3 44779677.8746 # total power usage of dispatch stage_cc3
issue_stage_power_cc3  2075980146.5055 # total power usage of issue stage_cc3
avg_fetch_power_cc3          1.3285 # average power of fetch unit per cycle_cc3
avg_dispatch_power_cc3       0.5529 # average power of dispatch unit per cycle_cc3
avg_issue_power_cc3         25.6328 # average power of issue unit per cycle_cc3
total_power_cycle_cc3  3123139834.5641 # total power per cycle_cc3
avg_total_power_cycle_cc3      38.5624 # average total power per cycle_cc3
avg_total_power_insn_cc3      31.2314 # average total power per insn_cc3
total_rename_access       100000008 # total number accesses of rename unit
total_bpred_access                0 # total number accesses of bpred unit
total_window_access       353160057 # total number accesses of instruction window
total_lsq_access           38878517 # total number accesses of load/store queue
total_regfile_access      141131522 # total number accesses of arch. regfile
total_icache_access       132456461 # total number accesses of icache
total_dcache_access        36836568 # total number accesses of dcache
total_dcache2_access        2806217 # total number accesses of dcache2
total_alu_access           99926822 # total number accesses of alu
total_resultbus_access    120079796 # total number accesses of resultbus
avg_rename_access            1.2347 # avg number accesses of rename unit
avg_bpred_access             0.0000 # avg number accesses of bpred unit
avg_window_access            4.3606 # avg number accesses of instruction window
avg_lsq_access               0.4800 # avg number accesses of lsq
avg_regfile_access           1.7426 # avg number accesses of arch. regfile
avg_icache_access            1.6355 # avg number accesses of icache
avg_dcache_access            0.4548 # avg number accesses of dcache
avg_dcache2_access           0.0346 # avg number accesses of dcache2
avg_alu_access               1.2338 # avg number accesses of alu
avg_resultbus_access         1.4827 # avg number accesses of resultbus
max_rename_access                16 # max number accesses of rename unit
max_bpred_access                  0 # max number accesses of bpred unit
max_window_access                40 # max number accesses of instruction window
max_lsq_access                    8 # max number accesses of load/store queue
max_regfile_access               40 # max number accesses of arch. regfile
max_icache_access                16 # max number accesses of icache
max_dcache_access                 4 # max number accesses of dcache
max_dcache2_access                5 # max number accesses of dcache2
max_alu_access                    7 # max number accesses of alu
max_resultbus_access             27 # max number accesses of resultbus
max_cycle_power_cc1        210.3091 # maximum cycle power usage of cc1
max_cycle_power_cc2        158.7199 # maximum cycle power usage of cc2
max_cycle_power_cc3        166.7816 # maximum cycle power usage of cc3
sim_invalid_addrs                 0 # total non-speculative bogus addresses seen (debug var)
ld_text_base           0x0120000000 # program text (code) segment base
ld_text_size                 385024 # program text (code) size in bytes
ld_data_base           0x0140000000 # program initialized data segment base
ld_data_size                  79904 # program init'ed `.data' and uninit'ed `.bss' size in bytes
ld_stack_base          0x011ff9b000 # program stack segment base (highest address in stack)
ld_stack_size                 16384 # program initial stack size
ld_prog_entry          0x0120025e14 # program entry point (initial PC)
ld_environ_base        0x011ff952d0 # program environment base address address
ld_target_big_endian              0 # target executable endian-ness, non-zero if big endian
mem.page_count                 3373 # total number of pages allocated
mem.page_mem                 26984k # total size of memory pages allocated
mem.ptab_misses                4439 # total first level page table misses
mem.ptab_accesses         874975962 # total page table accesses
mem.ptab_miss_rate           0.0000 # first level page table miss rate

