sim-outorder: SimpleScalar/Alpha Tool Set version 3.0 of August, 2003.
Copyright (c) 1994-2003 by Todd M. Austin, Ph.D. and SimpleScalar, LLC.
All Rights Reserved. This version of SimpleScalar is licensed for academic
non-commercial use.  No portion of this work may be used by any commercial
entity, or for any commercial purpose, without the prior written permission
of SimpleScalar, LLC (info@simplescalar.com).


Processor Parameters:
Issue Width: 16
Window Size: 128
Number of Virtual Registers: 32
Number of Physical Registers: 128
Datapath Width: 64
Total Power Consumption: 249.062
Branch Predictor Power Consumption: 2.84842  (1.15%)
 branch target buffer power (W): 2.49493
 local predict power (W): 0.0867068
 global predict power (W): 0.0996078
 chooser power (W): 0.0702439
 RAS power (W): 0.0969383
Rename Logic Power Consumption: 3.68501  (1.49%)
 Instruction Decode Power (W): 0.0639661
 RAT decode_power (W): 0.454058
 RAT wordline_power (W): 0.257408
 RAT bitline_power (W): 2.69143
 DCL Comparators (W): 0.218151
Instruction Window Power Consumption: 76.4406  (30.9%)
 tagdrive (W): 6.64903
 tagmatch (W): 2.27024
 Selection Logic (W): 0.461706
 decode_power (W): 2.17466
 wordline_power (W): 1.0557
 bitline_power (W): 63.8292
Load/Store Queue Power Consumption: 4.43192  (1.79%)
 tagdrive (W): 1.99569
 tagmatch (W): 0.80629
 decode_power (W): 0.0813819
 wordline_power (W): 0.0150119
 bitline_power (W): 1.53354
Arch. Register File Power Consumption: 25.1387  (10.2%)
 decode_power (W): 0.454058
 wordline_power (W): 1.0557
 bitline_power (W): 23.629
Result Bus Power Consumption: 51.7534  (20.9%)
Total Clock Power: 53.5782  (21.7%)
Int ALU Power: 2.33007  (0.943%)
FP ALU Power: 14.281  (5.78%)
Instruction Cache Power Consumption: 2.76773  (1.12%)
 decode_power (W): 0.151353
 wordline_power (W): 0.180479
 bitline_power (W): 1.42251
 senseamp_power (W): 0.768
 tagarray_power (W): 0.245382
Itlb_power (W): 0.264936 (0.107%)
Data Cache Power Consumption: 5.53546  (2.24%)
 decode_power (W): 0.302705
 wordline_power (W): 0.360958
 bitline_power (W): 2.84503
 senseamp_power (W): 1.536
 tagarray_power (W): 0.490764
Dtlb_power (W): 0.903441 (0.366%)
Level 2 Cache Power Consumption: 3.10298 (1.26%)
 decode_power (W): 0.19487
 wordline_power (W): 0.0430878
 bitline_power (W): 1.77274
 senseamp_power (W): 0.192
 tagarray_power (W): 0.900275
sim: loading EIO file: ../benchmarks/254.gap.spec_ref.eio.gz
sim: command line: ./sim-outorder -config ../configs/current.config ../benchmarks/254.gap.spec_ref.eio.gz 

sim: simulation started @ Tue Nov 24 12:44:28 2015, options follow:

sim-outorder: This simulator implements a very detailed out-of-order issue
superscalar processor with a two-level memory system and speculative
execution support.  This simulator is a performance simulator, tracking the
latency of all pipeline operations.

# -config                     # load configuration from a file
# -dumpconfig                 # dump configuration to a file
# -h                    false # print help message    
# -v                    false # verbose operation     
# -d                    false # enable debug message  
# -i                    false # start in Dlite debugger
-seed                       1 # random number generator seed (0 for timer seed)
# -q                    false # initialize and terminate immediately
# -chkpt               <null> # restore EIO trace execution from <fname>
# -redir:sim     ../results/27_26_fus/254.gap.spec_ref.eio.gz.out # redirect simulator output to file (non-interactive only)
# -redir:prog       /dev/null # redirect simulated program output to file
-nice                       0 # simulator scheduling priority
-freq            600000000.0000 # frequency             
-max:inst           100000000 # maximum number of inst's to execute
-fastfwd                    0 # number of insts skipped before timing starts
# -ptrace              <null> # generate pipetrace, i.e., <fname|stdout|stderr> <range>
-fetch:ifqsize             16 # instruction fetch queue size (in insts)
-fetch:mplat               15 # extra branch mis-prediction latency
-fetch:speed                1 # speed of front-end of machine relative to execution core
-bpred                perfect # branch predictor type {nottaken|taken|perfect|bimod|2lev|comb}
-bpred:bimod     2048 # bimodal predictor config (<table size>)
-bpred:2lev      1 1024 4 0 # 2-level predictor config (<l1size> <l2size> <hist_size> <xor>)
-bpred:comb      1024 # combining predictor config (<meta_table_size>)
-bpred:ras                  8 # return address stack size (0 for no return stack)
-bpred:btb       512 4 # BTB config (<num_sets> <associativity>)
# -bpred:spec_update       <null> # speculative predictors update in {ID|WB} (default non-spec)
-decode:width              16 # instruction decode B/W (insts/cycle)
-issue:width               16 # instruction issue B/W (insts/cycle)
-issue:inorder          false # run pipeline with in-order issue
-issue:wrongpath         true # issue instructions down wrong execution paths
-commit:width              16 # instruction commit B/W (insts/cycle)
-ruu:size                 128 # register update unit (RUU) size
-lsq:size                  64 # load/store queue (LSQ) size
-cache:dl1       dl1:32:64:8:f # l1 data cache config, i.e., {<config>|none}
-cache:dl1lat               1 # l1 data cache hit latency (in cycles)
-cache:dl2       dl2:256:64:8:f # l2 data cache config, i.e., {<config>|none}
-cache:dl2lat               2 # l2 data cache hit latency (in cycles)
-cache:il1       il1:32:64:8:f # l1 inst cache config, i.e., {<config>|dl1|dl2|none}
-cache:il1lat               1 # l1 instruction cache hit latency (in cycles)
-cache:il2                dl2 # l2 instruction cache config, i.e., {<config>|dl2|none}
-cache:il2lat               2 # l2 instruction cache hit latency (in cycles)
-cache:flush            false # flush caches on system calls
-cache:icompress        false # convert 64-bit inst addresses to 32-bit inst equivalents
-mem:lat         103 1 # memory access latency (<first_chunk> <inter_chunk>)
-mem:width                  8 # memory access bus width (in bytes)
-tlb:itlb        itlb:16:4096:4:l # instruction TLB config, i.e., {<config>|none}
-tlb:dtlb        dtlb:32:4096:4:l # data TLB config, i.e., {<config>|none}
-tlb:lat                   30 # inst/data TLB miss latency (in cycles)
-res:ialu                   2 # total number of integer ALU's available
-res:imult                  1 # total number of integer multiplier/dividers available
-res:memport                2 # total number of memory system ports available (to CPU)
-res:fpalu                  4 # total number of floating point ALU's available
-res:fpmult                 1 # total number of floating point multiplier/dividers available
# -pcstat              <null> # profile stat(s) against text addr's (mult uses ok)
-bugcompat              false # operate in backward-compatible bugs mode (for testing only)

  Pipetrace range arguments are formatted as follows:

    {{@|#}<start>}:{{@|#|+}<end>}

  Both ends of the range are optional, if neither are specified, the entire
  execution is traced.  Ranges that start with a `@' designate an address
  range to be traced, those that start with an `#' designate a cycle count
  range.  All other range values represent an instruction count range.  The
  second argument, if specified with a `+', indicates a value relative
  to the first argument, e.g., 1000:+100 == 1000:1100.  Program symbols may
  be used in all contexts.

    Examples:   -ptrace FOO.trc #0:#1000
                -ptrace BAR.trc @2000:
                -ptrace BLAH.trc :1500
                -ptrace UXXE.trc :
                -ptrace FOOBAR.trc @main:+278

  Branch predictor configuration examples for 2-level predictor:
    Configurations:   N, M, W, X
      N   # entries in first level (# of shift register(s))
      W   width of shift register(s)
      M   # entries in 2nd level (# of counters, or other FSM)
      X   (yes-1/no-0) xor history and address for 2nd level index
    Sample predictors:
      GAg     : 1, W, 2^W, 0
      GAp     : 1, W, M (M > 2^W), 0
      PAg     : N, W, 2^W, 0
      PAp     : N, W, M (M == 2^(N+W)), 0
      gshare  : 1, W, 2^W, 1
  Predictor `comb' combines a bimodal and a 2-level predictor.

  The cache config parameter <config> has the following format:

    <name>:<nsets>:<bsize>:<assoc>:<repl>

    <name>   - name of the cache being defined
    <nsets>  - number of sets in the cache
    <bsize>  - block size of the cache
    <assoc>  - associativity of the cache
    <repl>   - block replacement strategy, 'l'-LRU, 'f'-FIFO, 'r'-random

    Examples:   -cache:dl1 dl1:4096:32:1:l
                -dtlb dtlb:128:4096:32:r

  Cache levels can be unified by pointing a level of the instruction cache
  hierarchy at the data cache hiearchy using the "dl1" and "dl2" cache
  configuration arguments.  Most sensible combinations are supported, e.g.,

    A unified l2 cache (il2 is pointed at dl2):
      -cache:il1 il1:128:64:1:l -cache:il2 dl2
      -cache:dl1 dl1:256:32:1:l -cache:dl2 ul2:1024:64:2:l

    Or, a fully unified cache hierarchy (il1 pointed at dl1):
      -cache:il1 dl1
      -cache:dl1 ul1:256:32:1:l -cache:dl2 ul2:1024:64:2:l



sim: ** starting performance simulation **

sim: ** simulation statistics **
sim_num_insn              100000000 # total number of instructions committed
sim_num_refs               38627056 # total number of loads and stores committed
sim_num_loads              28651457 # total number of loads committed
sim_num_stores         9975599.0000 # total number of stores committed
sim_num_branches           12668151 # total number of branches committed
sim_elapsed_time                179 # total simulation time in seconds
sim_inst_rate           558659.2179 # simulation speed (in insts/sec)
sim_total_insn            100000000 # total number of instructions executed
sim_total_refs             38627056 # total number of loads and stores executed
sim_total_loads            28651457 # total number of loads executed
sim_total_stores       9975599.0000 # total number of stores executed
sim_total_branches         12668151 # total number of branches executed
sim_cycle                  51984739 # total simulation time in cycles
sim_IPC                      1.9236 # instructions per cycle
sim_CPI                      0.5198 # cycles per instruction
sim_exec_BW                  1.9236 # total instructions (mis-spec + committed) per cycle
sim_IPB                      7.8938 # instruction per branch
IFQ_count                 825423055 # cumulative IFQ occupancy
IFQ_fcount                 51586698 # cumulative IFQ full count
ifq_occupancy               15.8782 # avg IFQ occupancy (insn's)
ifq_rate                     1.9236 # avg IFQ dispatch rate (insn/cycle)
ifq_latency                  8.2542 # avg IFQ occupant latency (cycle's)
ifq_full                     0.9923 # fraction of time (cycle's) IFQ was full
RUU_count                6560116117 # cumulative RUU occupancy
RUU_fcount                 42823605 # cumulative RUU full count
ruu_occupancy              126.1931 # avg RUU occupancy (insn's)
ruu_rate                     1.9236 # avg RUU dispatch rate (insn/cycle)
ruu_latency                 65.6012 # avg RUU occupant latency (cycle's)
ruu_full                     0.8238 # fraction of time (cycle's) RUU was full
LSQ_count                2579618613 # cumulative LSQ occupancy
LSQ_fcount                  2136443 # cumulative LSQ full count
lsq_occupancy               49.6226 # avg LSQ occupancy (insn's)
lsq_rate                     1.9236 # avg LSQ dispatch rate (insn/cycle)
lsq_latency                 25.7962 # avg LSQ occupant latency (cycle's)
lsq_full                     0.0411 # fraction of time (cycle's) LSQ was full
sim_slip                 9278355652 # total number of slip cycles
avg_sim_slip                92.7836 # the average slip between issue and retirement
il1.accesses              225923392 # total number of accesses
il1.hits                  225919695 # total number of hits
il1.misses                     3697 # total number of misses
il1.replacements               3451 # total number of replacements
il1.writebacks                    0 # total number of writebacks
il1.invalidations                 0 # total number of invalidations
il1.miss_rate                0.0000 # miss rate (i.e., misses/ref)
il1.repl_rate                0.0000 # replacement rate (i.e., repls/ref)
il1.wb_rate                  0.0000 # writeback rate (i.e., wrbks/ref)
il1.inv_rate                 0.0000 # invalidation rate (i.e., invs/ref)
dl1.accesses               37860105 # total number of accesses
dl1.hits                   37689852 # total number of hits
dl1.misses                   170253 # total number of misses
dl1.replacements             169997 # total number of replacements
dl1.writebacks               141640 # total number of writebacks
dl1.invalidations                 0 # total number of invalidations
dl1.miss_rate                0.0045 # miss rate (i.e., misses/ref)
dl1.repl_rate                0.0045 # replacement rate (i.e., repls/ref)
dl1.wb_rate                  0.0037 # writeback rate (i.e., wrbks/ref)
dl1.inv_rate                 0.0000 # invalidation rate (i.e., invs/ref)
dl2.accesses                 315590 # total number of accesses
dl2.hits                     178501 # total number of hits
dl2.misses                   137089 # total number of misses
dl2.replacements             135041 # total number of replacements
dl2.writebacks               128060 # total number of writebacks
dl2.invalidations                 0 # total number of invalidations
dl2.miss_rate                0.4344 # miss rate (i.e., misses/ref)
dl2.repl_rate                0.4279 # replacement rate (i.e., repls/ref)
dl2.wb_rate                  0.4058 # writeback rate (i.e., wrbks/ref)
dl2.inv_rate                 0.0000 # invalidation rate (i.e., invs/ref)
itlb.accesses             225923392 # total number of accesses
itlb.hits                 225923373 # total number of hits
itlb.misses                      19 # total number of misses
itlb.replacements                 0 # total number of replacements
itlb.writebacks                   0 # total number of writebacks
itlb.invalidations                0 # total number of invalidations
itlb.miss_rate               0.0000 # miss rate (i.e., misses/ref)
itlb.repl_rate               0.0000 # replacement rate (i.e., repls/ref)
itlb.wb_rate                 0.0000 # writeback rate (i.e., wrbks/ref)
itlb.inv_rate                0.0000 # invalidation rate (i.e., invs/ref)
dtlb.accesses              38626995 # total number of accesses
dtlb.hits                  38624810 # total number of hits
dtlb.misses                    2185 # total number of misses
dtlb.replacements              2057 # total number of replacements
dtlb.writebacks                   0 # total number of writebacks
dtlb.invalidations                0 # total number of invalidations
dtlb.miss_rate               0.0001 # miss rate (i.e., misses/ref)
dtlb.repl_rate               0.0001 # replacement rate (i.e., repls/ref)
dtlb.wb_rate                 0.0000 # writeback rate (i.e., wrbks/ref)
dtlb.inv_rate                0.0000 # invalidation rate (i.e., invs/ref)
rename_power           191564513.6229 # total power usage of rename unit
bpred_power            148074613.1500 # total power usage of bpred unit
window_power           3973743519.0323 # total power usage of instruction window
lsq_power              230391989.1266 # total power usage of load/store queue
regfile_power          1306830977.2795 # total power usage of arch. regfile
icache_power           157652256.4800 # total power usage of icache
dcache_power           334724435.2353 # total power usage of dcache
dcache2_power          161307437.5083 # total power usage of dcache2
alu_power              863524227.3143 # total power usage of alu
falu_power             742396394.7545 # total power usage of falu
resultbus_power        2690388421.0813 # total power usage of resultbus
clock_power            2785248684.1461 # total power usage of clock
avg_rename_power             3.6850 # avg power usage of rename unit
avg_bpred_power              2.8484 # avg power usage of bpred unit
avg_window_power            76.4406 # avg power usage of instruction window
avg_lsq_power                4.4319 # avg power usage of lsq
avg_regfile_power           25.1387 # avg power usage of arch. regfile
avg_icache_power             3.0327 # avg power usage of icache
avg_dcache_power             6.4389 # avg power usage of dcache
avg_dcache2_power            3.1030 # avg power usage of dcache2
avg_alu_power               16.6111 # avg power usage of alu
avg_falu_power              14.2810 # avg power usage of falu
avg_resultbus_power         51.7534 # avg power usage of resultbus
avg_clock_power             53.5782 # avg power usage of clock
fetch_stage_power      305726869.6299 # total power usage of fetch stage
dispatch_stage_power   191564513.6229 # total power usage of dispatch stage
issue_stage_power      8254080029.2980 # total power usage of issue stage
avg_fetch_power              5.8811 # average power of fetch unit per cycle
avg_dispatch_power           3.6850 # average power of dispatch unit per cycle
avg_issue_power            158.7789 # average power of issue unit per cycle
total_power            12843451073.9765 # total power per cycle
avg_total_power_cycle      247.0620 # average total power per cycle
avg_total_power_cycle_nofp_nod2     229.6779 # average total power per cycle
avg_total_power_insn       128.4345 # average total power per insn
avg_total_power_insn_nofp_nod2     119.3975 # average total power per insn
rename_power_cc1       139361663.2605 # total power usage of rename unit_cc1
bpred_power_cc1              0.0000 # total power usage of bpred unit_cc1
window_power_cc1       3409920584.1672 # total power usage of instruction window_cc1
lsq_power_cc1          78714507.9043 # total power usage of lsq_cc1
regfile_power_cc1      819848228.0237 # total power usage of arch. regfile_cc1
icache_power_cc1       114693045.8797 # total power usage of icache_cc1
dcache_power_cc1       182258176.7173 # total power usage of dcache_cc1
dcache2_power_cc1       539683.6836 # total power usage of dcache2_cc1
alu_power_cc1          115800516.7307 # total power usage of alu_cc1
resultbus_power_cc1    2390810249.1740 # total power usage of resultbus_cc1
clock_power_cc1        2037621452.7358 # total power usage of clock_cc1
avg_rename_power_cc1         2.6808 # avg power usage of rename unit_cc1
avg_bpred_power_cc1          0.0000 # avg power usage of bpred unit_cc1
avg_window_power_cc1        65.5946 # avg power usage of instruction window_cc1
avg_lsq_power_cc1            1.5142 # avg power usage of lsq_cc1
avg_regfile_power_cc1       15.7709 # avg power usage of arch. regfile_cc1
avg_icache_power_cc1         2.2063 # avg power usage of icache_cc1
avg_dcache_power_cc1         3.5060 # avg power usage of dcache_cc1
avg_dcache2_power_cc1        0.0104 # avg power usage of dcache2_cc1
avg_alu_power_cc1            2.2276 # avg power usage of alu_cc1
avg_resultbus_power_cc1      45.9906 # avg power usage of resultbus_cc1
avg_clock_power_cc1         39.1965 # avg power usage of clock_cc1
fetch_stage_power_cc1  114693045.8797 # total power usage of fetch stage_cc1
dispatch_stage_power_cc1 139361663.2605 # total power usage of dispatch stage_cc1
issue_stage_power_cc1  6178043718.3771 # total power usage of issue stage_cc1
avg_fetch_power_cc1          2.2063 # average power of fetch unit per cycle_cc1
avg_dispatch_power_cc1       2.6808 # average power of dispatch unit per cycle_cc1
avg_issue_power_cc1        118.8434 # average power of issue unit per cycle_cc1
total_power_cycle_cc1  9289568108.2768 # total power per cycle_cc1
avg_total_power_cycle_cc1     178.6980 # average total power per cycle_cc1
avg_total_power_insn_cc1      92.8957 # average total power per insn_cc1
rename_power_cc2       23031340.2272 # total power usage of rename unit_cc2
bpred_power_cc2              0.0000 # total power usage of bpred unit_cc2
window_power_cc2       669692954.1045 # total power usage of instruction window_cc2
lsq_power_cc2          47654098.6801 # total power usage of lsq_cc2
regfile_power_cc2      43722766.5569 # total power usage of arch. regfile_cc2
icache_power_cc2       114693045.8797 # total power usage of icache_cc2
dcache_power_cc2       121888678.2570 # total power usage of dcache_cc2
dcache2_power_cc2       489634.2198 # total power usage of dcache2_cc2
alu_power_cc2          116515934.0977 # total power usage of alu_cc2
resultbus_power_cc2    351710493.0693 # total power usage of resultbus_cc2
clock_power_cc2        418352545.5668 # total power usage of clock_cc2
avg_rename_power_cc2         0.4430 # avg power usage of rename unit_cc2
avg_bpred_power_cc2          0.0000 # avg power usage of bpred unit_cc2
avg_window_power_cc2        12.8825 # avg power usage of instruction window_cc2
avg_lsq_power_cc2            0.9167 # avg power usage of instruction lsq_cc2
avg_regfile_power_cc2        0.8411 # avg power usage of arch. regfile_cc2
avg_icache_power_cc2         2.2063 # avg power usage of icache_cc2
avg_dcache_power_cc2         2.3447 # avg power usage of dcache_cc2
avg_dcache2_power_cc2        0.0094 # avg power usage of dcache2_cc2
avg_alu_power_cc2            2.2413 # avg power usage of alu_cc2
avg_resultbus_power_cc2       6.7656 # avg power usage of resultbus_cc2
avg_clock_power_cc2          8.0476 # avg power usage of clock_cc2
fetch_stage_power_cc2  114693045.8797 # total power usage of fetch stage_cc2
dispatch_stage_power_cc2 23031340.2272 # total power usage of dispatch stage_cc2
issue_stage_power_cc2  1307951792.4284 # total power usage of issue stage_cc2
avg_fetch_power_cc2          2.2063 # average power of fetch unit per cycle_cc2
avg_dispatch_power_cc2       0.4430 # average power of dispatch unit per cycle_cc2
avg_issue_power_cc2         25.1603 # average power of issue unit per cycle_cc2
total_power_cycle_cc2  1907751490.6591 # total power per cycle_cc2
avg_total_power_cycle_cc2      36.6983 # average total power per cycle_cc2
avg_total_power_insn_cc2      19.0775 # average total power per insn_cc2
rename_power_cc3       28251625.2738 # total power usage of rename unit_cc3
bpred_power_cc3        14807461.3001 # total power usage of bpred unit_cc3
window_power_cc3       686896725.0485 # total power usage of instruction window_cc3
lsq_power_cc3          62621300.2797 # total power usage of lsq_cc3
regfile_power_cc3      83587407.6254 # total power usage of arch. regfile_cc3
icache_power_cc3       118988966.9701 # total power usage of icache_cc3
dcache_power_cc3       137649809.6551 # total power usage of dcache_cc3
dcache2_power_cc3      16566536.3741 # total power usage of dcache2_cc3
alu_power_cc3          191288304.8958 # total power usage of alu_cc3
resultbus_power_cc3    365729590.8803 # total power usage of resultbus_cc3
clock_power_cc3        475364600.2114 # total power usage of clock_cc3
avg_rename_power_cc3         0.5435 # avg power usage of rename unit_cc3
avg_bpred_power_cc3          0.2848 # avg power usage of bpred unit_cc3
avg_window_power_cc3        13.2134 # avg power usage of instruction window_cc3
avg_lsq_power_cc3            1.2046 # avg power usage of instruction lsq_cc3
avg_regfile_power_cc3        1.6079 # avg power usage of arch. regfile_cc3
avg_icache_power_cc3         2.2889 # avg power usage of icache_cc3
avg_dcache_power_cc3         2.6479 # avg power usage of dcache_cc3
avg_dcache2_power_cc3        0.3187 # avg power usage of dcache2_cc3
avg_alu_power_cc3            3.6797 # avg power usage of alu_cc3
avg_resultbus_power_cc3       7.0353 # avg power usage of resultbus_cc3
avg_clock_power_cc3          9.1443 # avg power usage of clock_cc3
fetch_stage_power_cc3  133796428.2702 # total power usage of fetch stage_cc3
dispatch_stage_power_cc3 28251625.2738 # total power usage of dispatch stage_cc3
issue_stage_power_cc3  1460752267.1336 # total power usage of issue stage_cc3
avg_fetch_power_cc3          2.5738 # average power of fetch unit per cycle_cc3
avg_dispatch_power_cc3       0.5435 # average power of dispatch unit per cycle_cc3
avg_issue_power_cc3         28.0996 # average power of issue unit per cycle_cc3
total_power_cycle_cc3  2181752328.5145 # total power per cycle_cc3
avg_total_power_cycle_cc3      41.9691 # average total power per cycle_cc3
avg_total_power_insn_cc3      21.8175 # average total power per insn_cc3
total_rename_access       100000000 # total number accesses of rename unit
total_bpred_access                0 # total number accesses of bpred unit
total_window_access       343233351 # total number accesses of instruction window
total_lsq_access           39393885 # total number accesses of load/store queue
total_regfile_access       92468322 # total number accesses of arch. regfile
total_icache_access       225923392 # total number accesses of icache
total_dcache_access        37860105 # total number accesses of dcache
total_dcache2_access         315590 # total number accesses of dcache2
total_alu_access           99999880 # total number accesses of alu
total_resultbus_access    115983154 # total number accesses of resultbus
avg_rename_access            1.9236 # avg number accesses of rename unit
avg_bpred_access             0.0000 # avg number accesses of bpred unit
avg_window_access            6.6026 # avg number accesses of instruction window
avg_lsq_access               0.7578 # avg number accesses of lsq
avg_regfile_access           1.7788 # avg number accesses of arch. regfile
avg_icache_access            4.3460 # avg number accesses of icache
avg_dcache_access            0.7283 # avg number accesses of dcache
avg_dcache2_access           0.0061 # avg number accesses of dcache2
avg_alu_access               1.9236 # avg number accesses of alu
avg_resultbus_access         2.2311 # avg number accesses of resultbus
max_rename_access                16 # max number accesses of rename unit
max_bpred_access                  0 # max number accesses of bpred unit
max_window_access                33 # max number accesses of instruction window
max_lsq_access                   10 # max number accesses of load/store queue
max_regfile_access               27 # max number accesses of arch. regfile
max_icache_access                16 # max number accesses of icache
max_dcache_access                 4 # max number accesses of dcache
max_dcache2_access                4 # max number accesses of dcache2
max_alu_access                    4 # max number accesses of alu
max_resultbus_access             25 # max number accesses of resultbus
max_cycle_power_cc1        213.5304 # maximum cycle power usage of cc1
max_cycle_power_cc2        143.1903 # maximum cycle power usage of cc2
max_cycle_power_cc3        149.3383 # maximum cycle power usage of cc3
sim_invalid_addrs                 0 # total non-speculative bogus addresses seen (debug var)
ld_text_base           0x0120000000 # program text (code) segment base
ld_text_size                 933888 # program text (code) size in bytes
ld_data_base           0x0140000000 # program initialized data segment base
ld_data_size                1034176 # program init'ed `.data' and uninit'ed `.bss' size in bytes
ld_stack_base          0x011ff9b000 # program stack segment base (highest address in stack)
ld_stack_size                 16384 # program initial stack size
ld_prog_entry          0x01200508cc # program entry point (initial PC)
ld_environ_base        0x011ff968c0 # program environment base address address
ld_target_big_endian              0 # target executable endian-ness, non-zero if big endian
mem.page_count                24731 # total number of pages allocated
mem.page_mem                197848k # total size of memory pages allocated
mem.ptab_misses               28320 # total first level page table misses
mem.ptab_accesses        1382159508 # total page table accesses
mem.ptab_miss_rate           0.0000 # first level page table miss rate

