sim-outorder: SimpleScalar/Alpha Tool Set version 3.0 of August, 2003.
Copyright (c) 1994-2003 by Todd M. Austin, Ph.D. and SimpleScalar, LLC.
All Rights Reserved. This version of SimpleScalar is licensed for academic
non-commercial use.  No portion of this work may be used by any commercial
entity, or for any commercial purpose, without the prior written permission
of SimpleScalar, LLC (info@simplescalar.com).


Processor Parameters:
Issue Width: 16
Window Size: 64
Number of Virtual Registers: 32
Number of Physical Registers: 64
Datapath Width: 64
Total Power Consumption: 231.501
Branch Predictor Power Consumption: 3.11615  (1.36%)
 branch target buffer power (W): 2.49493
 local predict power (W): 0.354432
 global predict power (W): 0.0996078
 chooser power (W): 0.0702439
 RAS power (W): 0.0969383
Rename Logic Power Consumption: 3.27072  (1.43%)
 Instruction Decode Power (W): 0.0639661
 RAT decode_power (W): 0.454058
 RAT wordline_power (W): 0.227603
 RAT bitline_power (W): 2.30694
 DCL Comparators (W): 0.218151
Instruction Window Power Consumption: 43.216  (18.8%)
 tagdrive (W): 2.9395
 tagmatch (W): 0.989695
 Selection Logic (W): 0.225484
 decode_power (W): 0.976583
 wordline_power (W): 1.0557
 bitline_power (W): 37.0291
Load/Store Queue Power Consumption: 9.33077  (4.07%)
 tagdrive (W): 4.52311
 tagmatch (W): 1.71883
 decode_power (W): 0.162764
 wordline_power (W): 0.0433172
 bitline_power (W): 2.88275
Arch. Register File Power Consumption: 25.1387  (11%)
 decode_power (W): 0.454058
 wordline_power (W): 1.0557
 bitline_power (W): 23.629
Result Bus Power Consumption: 31.3281  (13.7%)
Total Clock Power: 61.8648  (27%)
Int ALU Power: 4.66013  (2.03%)
FP ALU Power: 28.5621  (12.4%)
Instruction Cache Power Consumption: 2.76773  (1.21%)
 decode_power (W): 0.151353
 wordline_power (W): 0.180479
 bitline_power (W): 1.42251
 senseamp_power (W): 0.768
 tagarray_power (W): 0.245382
Itlb_power (W): 0.264936 (0.115%)
Data Cache Power Consumption: 11.0709  (4.82%)
 decode_power (W): 0.60541
 wordline_power (W): 0.721917
 bitline_power (W): 5.69006
 senseamp_power (W): 3.072
 tagarray_power (W): 0.981529
Dtlb_power (W): 1.80688 (0.787%)
Level 2 Cache Power Consumption: 3.10298 (1.35%)
 decode_power (W): 0.19487
 wordline_power (W): 0.0430878
 bitline_power (W): 1.77274
 senseamp_power (W): 0.192
 tagarray_power (W): 0.900275
sim: loading EIO file: ../benchmarks/164.gzip.log-ref.eio.gz
sim: command line: ./sim-outorder -config ../configs/current.config ../benchmarks/164.gzip.log-ref.eio.gz 

sim: simulation started @ Tue Nov 24 13:08:29 2015, options follow:

sim-outorder: This simulator implements a very detailed out-of-order issue
superscalar processor with a two-level memory system and speculative
execution support.  This simulator is a performance simulator, tracking the
latency of all pipeline operations.

# -config                     # load configuration from a file
# -dumpconfig                 # dump configuration to a file
# -h                    false # print help message    
# -v                    false # verbose operation     
# -d                    false # enable debug message  
# -i                    false # start in Dlite debugger
-seed                       1 # random number generator seed (0 for timer seed)
# -q                    false # initialize and terminate immediately
# -chkpt               <null> # restore EIO trace execution from <fname>
# -redir:sim     ../results/28_23_bp/164.gzip.log-ref.eio.gz.out # redirect simulator output to file (non-interactive only)
# -redir:prog       /dev/null # redirect simulated program output to file
-nice                       0 # simulator scheduling priority
-freq            600000000.0000 # frequency             
-max:inst           100000000 # maximum number of inst's to execute
-fastfwd                    0 # number of insts skipped before timing starts
# -ptrace              <null> # generate pipetrace, i.e., <fname|stdout|stderr> <range>
-fetch:ifqsize             16 # instruction fetch queue size (in insts)
-fetch:mplat               15 # extra branch mis-prediction latency
-fetch:speed                1 # speed of front-end of machine relative to execution core
-bpred                   2lev # branch predictor type {nottaken|taken|perfect|bimod|2lev|comb}
-bpred:bimod     2048 # bimodal predictor config (<table size>)
-bpred:2lev      1 8192 8 0 # 2-level predictor config (<l1size> <l2size> <hist_size> <xor>)
-bpred:comb      1024 # combining predictor config (<meta_table_size>)
-bpred:ras                  8 # return address stack size (0 for no return stack)
-bpred:btb       512 4 # BTB config (<num_sets> <associativity>)
# -bpred:spec_update       <null> # speculative predictors update in {ID|WB} (default non-spec)
-decode:width              16 # instruction decode B/W (insts/cycle)
-issue:width               16 # instruction issue B/W (insts/cycle)
-issue:inorder          false # run pipeline with in-order issue
-issue:wrongpath         true # issue instructions down wrong execution paths
-commit:width              16 # instruction commit B/W (insts/cycle)
-ruu:size                  64 # register update unit (RUU) size
-lsq:size                  64 # load/store queue (LSQ) size
-cache:dl1       dl1:32:64:8:f # l1 data cache config, i.e., {<config>|none}
-cache:dl1lat               1 # l1 data cache hit latency (in cycles)
-cache:dl2       dl2:256:64:8:f # l2 data cache config, i.e., {<config>|none}
-cache:dl2lat               2 # l2 data cache hit latency (in cycles)
-cache:il1       il1:32:64:8:f # l1 inst cache config, i.e., {<config>|dl1|dl2|none}
-cache:il1lat               1 # l1 instruction cache hit latency (in cycles)
-cache:il2                dl2 # l2 instruction cache config, i.e., {<config>|dl2|none}
-cache:il2lat               2 # l2 instruction cache hit latency (in cycles)
-cache:flush            false # flush caches on system calls
-cache:icompress        false # convert 64-bit inst addresses to 32-bit inst equivalents
-mem:lat         103 1 # memory access latency (<first_chunk> <inter_chunk>)
-mem:width                  8 # memory access bus width (in bytes)
-tlb:itlb        itlb:16:4096:4:l # instruction TLB config, i.e., {<config>|none}
-tlb:dtlb        dtlb:32:4096:4:l # data TLB config, i.e., {<config>|none}
-tlb:lat                   30 # inst/data TLB miss latency (in cycles)
-res:ialu                   4 # total number of integer ALU's available
-res:imult                  2 # total number of integer multiplier/dividers available
-res:memport                4 # total number of memory system ports available (to CPU)
-res:fpalu                  8 # total number of floating point ALU's available
-res:fpmult                 2 # total number of floating point multiplier/dividers available
# -pcstat              <null> # profile stat(s) against text addr's (mult uses ok)
-bugcompat              false # operate in backward-compatible bugs mode (for testing only)

  Pipetrace range arguments are formatted as follows:

    {{@|#}<start>}:{{@|#|+}<end>}

  Both ends of the range are optional, if neither are specified, the entire
  execution is traced.  Ranges that start with a `@' designate an address
  range to be traced, those that start with an `#' designate a cycle count
  range.  All other range values represent an instruction count range.  The
  second argument, if specified with a `+', indicates a value relative
  to the first argument, e.g., 1000:+100 == 1000:1100.  Program symbols may
  be used in all contexts.

    Examples:   -ptrace FOO.trc #0:#1000
                -ptrace BAR.trc @2000:
                -ptrace BLAH.trc :1500
                -ptrace UXXE.trc :
                -ptrace FOOBAR.trc @main:+278

  Branch predictor configuration examples for 2-level predictor:
    Configurations:   N, M, W, X
      N   # entries in first level (# of shift register(s))
      W   width of shift register(s)
      M   # entries in 2nd level (# of counters, or other FSM)
      X   (yes-1/no-0) xor history and address for 2nd level index
    Sample predictors:
      GAg     : 1, W, 2^W, 0
      GAp     : 1, W, M (M > 2^W), 0
      PAg     : N, W, 2^W, 0
      PAp     : N, W, M (M == 2^(N+W)), 0
      gshare  : 1, W, 2^W, 1
  Predictor `comb' combines a bimodal and a 2-level predictor.

  The cache config parameter <config> has the following format:

    <name>:<nsets>:<bsize>:<assoc>:<repl>

    <name>   - name of the cache being defined
    <nsets>  - number of sets in the cache
    <bsize>  - block size of the cache
    <assoc>  - associativity of the cache
    <repl>   - block replacement strategy, 'l'-LRU, 'f'-FIFO, 'r'-random

    Examples:   -cache:dl1 dl1:4096:32:1:l
                -dtlb dtlb:128:4096:32:r

  Cache levels can be unified by pointing a level of the instruction cache
  hierarchy at the data cache hiearchy using the "dl1" and "dl2" cache
  configuration arguments.  Most sensible combinations are supported, e.g.,

    A unified l2 cache (il2 is pointed at dl2):
      -cache:il1 il1:128:64:1:l -cache:il2 dl2
      -cache:dl1 dl1:256:32:1:l -cache:dl2 ul2:1024:64:2:l

    Or, a fully unified cache hierarchy (il1 pointed at dl1):
      -cache:il1 dl1
      -cache:dl1 ul1:256:32:1:l -cache:dl2 ul2:1024:64:2:l



sim: ** starting performance simulation **

sim: ** simulation statistics **
sim_num_insn              100000004 # total number of instructions committed
sim_num_refs               29770711 # total number of loads and stores committed
sim_num_loads              24694252 # total number of loads committed
sim_num_stores         5076459.0000 # total number of stores committed
sim_num_branches           11683349 # total number of branches committed
sim_elapsed_time                138 # total simulation time in seconds
sim_inst_rate           724637.7101 # simulation speed (in insts/sec)
sim_total_insn            138360822 # total number of instructions executed
sim_total_refs             42488201 # total number of loads and stores executed
sim_total_loads            35497020 # total number of loads executed
sim_total_stores       6991181.0000 # total number of stores executed
sim_total_branches         16614310 # total number of branches executed
sim_cycle                  66202364 # total simulation time in cycles
sim_IPC                      1.5105 # instructions per cycle
sim_CPI                      0.6620 # cycles per instruction
sim_exec_BW                  2.0900 # total instructions (mis-spec + committed) per cycle
sim_IPB                      8.5592 # instruction per branch
IFQ_count                 815315860 # cumulative IFQ occupancy
IFQ_fcount                 44830882 # cumulative IFQ full count
ifq_occupancy               12.3155 # avg IFQ occupancy (insn's)
ifq_rate                     2.0900 # avg IFQ dispatch rate (insn/cycle)
ifq_latency                  5.8927 # avg IFQ occupant latency (cycle's)
ifq_full                     0.6772 # fraction of time (cycle's) IFQ was full
RUU_count                3342576641 # cumulative RUU occupancy
RUU_fcount                 49466571 # cumulative RUU full count
ruu_occupancy               50.4903 # avg RUU occupancy (insn's)
ruu_rate                     2.0900 # avg RUU dispatch rate (insn/cycle)
ruu_latency                 24.1584 # avg RUU occupant latency (cycle's)
ruu_full                     0.7472 # fraction of time (cycle's) RUU was full
LSQ_count                1017104983 # cumulative LSQ occupancy
LSQ_fcount                        0 # cumulative LSQ full count
lsq_occupancy               15.3636 # avg LSQ occupancy (insn's)
lsq_rate                     2.0900 # avg LSQ dispatch rate (insn/cycle)
lsq_latency                  7.3511 # avg LSQ occupant latency (cycle's)
lsq_full                     0.0000 # fraction of time (cycle's) LSQ was full
sim_slip                 3958879775 # total number of slip cycles
avg_sim_slip                39.5888 # the average slip between issue and retirement
bpred_2lev.lookups         17820886 # total number of bpred lookups
bpred_2lev.updates         11683347 # total number of updates
bpred_2lev.addr_hits       10926426 # total number of address-predicted hits
bpred_2lev.dir_hits        10969558 # total number of direction-predicted hits (includes addr-hits)
bpred_2lev.misses            713789 # total number of misses
bpred_2lev.jr_hits           111040 # total number of address-predicted hits for JR's
bpred_2lev.jr_seen           154049 # total number of JR's seen
bpred_2lev.jr_non_ras_hits.PP           16 # total number of address-predicted hits for non-RAS JR's
bpred_2lev.jr_non_ras_seen.PP           17 # total number of non-RAS JR's seen
bpred_2lev.bpred_addr_rate    0.9352 # branch address-prediction rate (i.e., addr-hits/updates)
bpred_2lev.bpred_dir_rate    0.9389 # branch direction-prediction rate (i.e., all-hits/updates)
bpred_2lev.bpred_jr_rate    0.7208 # JR address-prediction rate (i.e., JR addr-hits/JRs seen)
bpred_2lev.bpred_jr_non_ras_rate.PP    0.9412 # non-RAS JR addr-pred rate (ie, non-RAS JR hits/JRs seen)
bpred_2lev.retstack_pushes       354006 # total number of address pushed onto ret-addr stack
bpred_2lev.retstack_pops       427853 # total number of address popped off of ret-addr stack
bpred_2lev.used_ras.PP       154032 # total number of RAS predictions used
bpred_2lev.ras_hits.PP       111024 # total number of RAS hits
bpred_2lev.ras_rate.PP    0.7208 # RAS prediction rate (i.e., RAS hits/used RAS)
il1.accesses              148839898 # total number of accesses
il1.hits                  148839710 # total number of hits
il1.misses                      188 # total number of misses
il1.replacements                  0 # total number of replacements
il1.writebacks                    0 # total number of writebacks
il1.invalidations                 0 # total number of invalidations
il1.miss_rate                0.0000 # miss rate (i.e., misses/ref)
il1.repl_rate                0.0000 # replacement rate (i.e., repls/ref)
il1.wb_rate                  0.0000 # writeback rate (i.e., wrbks/ref)
il1.inv_rate                 0.0000 # invalidation rate (i.e., invs/ref)
dl1.accesses               33373849 # total number of accesses
dl1.hits                   28669626 # total number of hits
dl1.misses                  4704223 # total number of misses
dl1.replacements            4703967 # total number of replacements
dl1.writebacks               671640 # total number of writebacks
dl1.invalidations                 0 # total number of invalidations
dl1.miss_rate                0.1410 # miss rate (i.e., misses/ref)
dl1.repl_rate                0.1409 # replacement rate (i.e., repls/ref)
dl1.wb_rate                  0.0201 # writeback rate (i.e., wrbks/ref)
dl1.inv_rate                 0.0000 # invalidation rate (i.e., invs/ref)
dl2.accesses                5376051 # total number of accesses
dl2.hits                    5158810 # total number of hits
dl2.misses                   217241 # total number of misses
dl2.replacements             215193 # total number of replacements
dl2.writebacks               109757 # total number of writebacks
dl2.invalidations                 0 # total number of invalidations
dl2.miss_rate                0.0404 # miss rate (i.e., misses/ref)
dl2.repl_rate                0.0400 # replacement rate (i.e., repls/ref)
dl2.wb_rate                  0.0204 # writeback rate (i.e., wrbks/ref)
dl2.inv_rate                 0.0000 # invalidation rate (i.e., invs/ref)
itlb.accesses             148839898 # total number of accesses
itlb.hits                 148839888 # total number of hits
itlb.misses                      10 # total number of misses
itlb.replacements                 0 # total number of replacements
itlb.writebacks                   0 # total number of writebacks
itlb.invalidations                0 # total number of invalidations
itlb.miss_rate               0.0000 # miss rate (i.e., misses/ref)
itlb.repl_rate               0.0000 # replacement rate (i.e., repls/ref)
itlb.wb_rate                 0.0000 # writeback rate (i.e., wrbks/ref)
itlb.inv_rate                0.0000 # invalidation rate (i.e., invs/ref)
dtlb.accesses              33708922 # total number of accesses
dtlb.hits                  33708692 # total number of hits
dtlb.misses                     230 # total number of misses
dtlb.replacements               102 # total number of replacements
dtlb.writebacks                   0 # total number of writebacks
dtlb.invalidations                0 # total number of invalidations
dtlb.miss_rate               0.0000 # miss rate (i.e., misses/ref)
dtlb.repl_rate               0.0000 # replacement rate (i.e., repls/ref)
dtlb.wb_rate                 0.0000 # writeback rate (i.e., wrbks/ref)
dtlb.inv_rate                0.0000 # invalidation rate (i.e., invs/ref)
rename_power           216529297.8101 # total power usage of rename unit
bpred_power            206296518.3464 # total power usage of bpred unit
window_power           2861003324.5348 # total power usage of instruction window
lsq_power              617719170.3689 # total power usage of load/store queue
regfile_power          1664244193.7509 # total power usage of arch. regfile
icache_power           200769538.5393 # total power usage of icache
dcache_power           852540547.2860 # total power usage of dcache
dcache2_power          205424397.5966 # total power usage of dcache2
alu_power              2199389526.2394 # total power usage of alu
falu_power             1890877873.2084 # total power usage of falu
resultbus_power        2073995349.6779 # total power usage of resultbus
clock_power            4095595659.1624 # total power usage of clock
avg_rename_power             3.2707 # avg power usage of rename unit
avg_bpred_power              3.1162 # avg power usage of bpred unit
avg_window_power            43.2160 # avg power usage of instruction window
avg_lsq_power                9.3308 # avg power usage of lsq
avg_regfile_power           25.1387 # avg power usage of arch. regfile
avg_icache_power             3.0327 # avg power usage of icache
avg_dcache_power            12.8778 # avg power usage of dcache
avg_dcache2_power            3.1030 # avg power usage of dcache2
avg_alu_power               33.2222 # avg power usage of alu
avg_falu_power              28.5621 # avg power usage of falu
avg_resultbus_power         31.3281 # avg power usage of resultbus
avg_clock_power             61.8648 # avg power usage of clock
fetch_stage_power      407066056.8857 # total power usage of fetch stage
dispatch_stage_power   216529297.8101 # total power usage of dispatch stage
issue_stage_power      8810072315.7037 # total power usage of issue stage
avg_fetch_power              6.1488 # average power of fetch unit per cycle
avg_dispatch_power           3.2707 # average power of dispatch unit per cycle
avg_issue_power            133.0779 # average power of issue unit per cycle
total_power            15193507523.3128 # total power per cycle
avg_total_power_cycle      229.5010 # average total power per cycle
avg_total_power_cycle_nofp_nod2     197.8359 # average total power per cycle
avg_total_power_insn       109.8108 # average total power per insn
avg_total_power_insn_nofp_nod2      94.6598 # average total power per insn
rename_power_cc1       96229477.6378 # total power usage of rename unit_cc1
bpred_power_cc1        27302930.1700 # total power usage of bpred unit_cc1
window_power_cc1       1558733250.4467 # total power usage of instruction window_cc1
lsq_power_cc1          105107076.8684 # total power usage of lsq_cc1
regfile_power_cc1      692987213.7284 # total power usage of arch. regfile_cc1
icache_power_cc1       92469385.4598 # total power usage of icache_cc1
dcache_power_cc1       227277226.3029 # total power usage of dcache_cc1
dcache2_power_cc1      14472661.4540 # total power usage of dcache2_cc1
alu_power_cc1          174899630.9651 # total power usage of alu_cc1
resultbus_power_cc1    1118196760.4658 # total power usage of resultbus_cc1
clock_power_cc1        1518266944.6801 # total power usage of clock_cc1
avg_rename_power_cc1         1.4536 # avg power usage of rename unit_cc1
avg_bpred_power_cc1          0.4124 # avg power usage of bpred unit_cc1
avg_window_power_cc1        23.5450 # avg power usage of instruction window_cc1
avg_lsq_power_cc1            1.5877 # avg power usage of lsq_cc1
avg_regfile_power_cc1       10.4677 # avg power usage of arch. regfile_cc1
avg_icache_power_cc1         1.3968 # avg power usage of icache_cc1
avg_dcache_power_cc1         3.4331 # avg power usage of dcache_cc1
avg_dcache2_power_cc1        0.2186 # avg power usage of dcache2_cc1
avg_alu_power_cc1            2.6419 # avg power usage of alu_cc1
avg_resultbus_power_cc1      16.8906 # avg power usage of resultbus_cc1
avg_clock_power_cc1         22.9337 # avg power usage of clock_cc1
fetch_stage_power_cc1  119772315.6298 # total power usage of fetch stage_cc1
dispatch_stage_power_cc1 96229477.6378 # total power usage of dispatch stage_cc1
issue_stage_power_cc1  3198686606.5029 # total power usage of issue stage_cc1
avg_fetch_power_cc1          1.8092 # average power of fetch unit per cycle_cc1
avg_dispatch_power_cc1       1.4536 # average power of dispatch unit per cycle_cc1
avg_issue_power_cc1         48.3168 # average power of issue unit per cycle_cc1
total_power_cycle_cc1  5625942558.1791 # total power per cycle_cc1
avg_total_power_cycle_cc1      84.9810 # average total power per cycle_cc1
avg_total_power_insn_cc1      40.6614 # average total power per insn_cc1
rename_power_cc2       28283706.4412 # total power usage of rename unit_cc2
bpred_power_cc2        18203532.8170 # total power usage of bpred unit_cc2
window_power_cc2       453285345.1141 # total power usage of instruction window_cc2
lsq_power_cc2          48600225.2124 # total power usage of lsq_cc2
regfile_power_cc2      71615374.6869 # total power usage of arch. regfile_cc2
icache_power_cc2       92469385.4598 # total power usage of icache_cc2
dcache_power_cc2       107445405.7370 # total power usage of dcache_cc2
dcache2_power_cc2      4170440.3450 # total power usage of dcache2_cc2
alu_power_cc2          130933227.1724 # total power usage of alu_cc2
resultbus_power_cc2    234004431.5233 # total power usage of resultbus_cc2
clock_power_cc2        440502393.8273 # total power usage of clock_cc2
avg_rename_power_cc2         0.4272 # avg power usage of rename unit_cc2
avg_bpred_power_cc2          0.2750 # avg power usage of bpred unit_cc2
avg_window_power_cc2         6.8470 # avg power usage of instruction window_cc2
avg_lsq_power_cc2            0.7341 # avg power usage of instruction lsq_cc2
avg_regfile_power_cc2        1.0818 # avg power usage of arch. regfile_cc2
avg_icache_power_cc2         1.3968 # avg power usage of icache_cc2
avg_dcache_power_cc2         1.6230 # avg power usage of dcache_cc2
avg_dcache2_power_cc2        0.0630 # avg power usage of dcache2_cc2
avg_alu_power_cc2            1.9778 # avg power usage of alu_cc2
avg_resultbus_power_cc2       3.5347 # avg power usage of resultbus_cc2
avg_clock_power_cc2          6.6539 # avg power usage of clock_cc2
fetch_stage_power_cc2  110672918.2768 # total power usage of fetch stage_cc2
dispatch_stage_power_cc2 28283706.4412 # total power usage of dispatch stage_cc2
issue_stage_power_cc2  978439075.1042 # total power usage of issue stage_cc2
avg_fetch_power_cc2          1.6717 # average power of fetch unit per cycle_cc2
avg_dispatch_power_cc2       0.4272 # average power of dispatch unit per cycle_cc2
avg_issue_power_cc2         14.7795 # average power of issue unit per cycle_cc2
total_power_cycle_cc2  1629513468.3363 # total power per cycle_cc2
avg_total_power_cycle_cc2      24.6141 # average total power per cycle_cc2
avg_total_power_insn_cc2      11.7773 # average total power per insn_cc2
rename_power_cc3       40313688.5116 # total power usage of rename unit_cc3
bpred_power_cc3        36152930.5393 # total power usage of bpred unit_cc3
window_power_cc3       568025733.7279 # total power usage of instruction window_cc3
lsq_power_cc3          99728723.9407 # total power usage of lsq_cc3
regfile_power_cc3      161271566.5979 # total power usage of arch. regfile_cc3
icache_power_cc3       103299400.8469 # total power usage of icache_cc3
dcache_power_cc3       170055868.6488 # total power usage of dcache_cc3
dcache2_power_cc3      23265617.2813 # total power usage of dcache2_cc3
alu_power_cc3          333382216.2129 # total power usage of alu_cc3
resultbus_power_cc3    322129648.2589 # total power usage of resultbus_cc3
clock_power_cc3        686999000.6719 # total power usage of clock_cc3
avg_rename_power_cc3         0.6089 # avg power usage of rename unit_cc3
avg_bpred_power_cc3          0.5461 # avg power usage of bpred unit_cc3
avg_window_power_cc3         8.5801 # avg power usage of instruction window_cc3
avg_lsq_power_cc3            1.5064 # avg power usage of instruction lsq_cc3
avg_regfile_power_cc3        2.4360 # avg power usage of arch. regfile_cc3
avg_icache_power_cc3         1.5604 # avg power usage of icache_cc3
avg_dcache_power_cc3         2.5687 # avg power usage of dcache_cc3
avg_dcache2_power_cc3        0.3514 # avg power usage of dcache2_cc3
avg_alu_power_cc3            5.0358 # avg power usage of alu_cc3
avg_resultbus_power_cc3       4.8658 # avg power usage of resultbus_cc3
avg_clock_power_cc3         10.3773 # avg power usage of clock_cc3
fetch_stage_power_cc3  139452331.3862 # total power usage of fetch stage_cc3
dispatch_stage_power_cc3 40313688.5116 # total power usage of dispatch stage_cc3
issue_stage_power_cc3  1516587808.0705 # total power usage of issue stage_cc3
avg_fetch_power_cc3          2.1065 # average power of fetch unit per cycle_cc3
avg_dispatch_power_cc3       0.6089 # average power of dispatch unit per cycle_cc3
avg_issue_power_cc3         22.9084 # average power of issue unit per cycle_cc3
total_power_cycle_cc3  2544624395.2381 # total power per cycle_cc3
avg_total_power_cycle_cc3      38.4371 # average total power per cycle_cc3
avg_total_power_insn_cc3      18.3912 # average total power per insn_cc3
total_rename_access       138360822 # total number accesses of rename unit
total_bpred_access         11683347 # total number accesses of bpred unit
total_window_access       432209844 # total number accesses of instruction window
total_lsq_access           34321408 # total number accesses of load/store queue
total_regfile_access      152079825 # total number accesses of arch. regfile
total_icache_access       148966792 # total number accesses of icache
total_dcache_access        33373849 # total number accesses of dcache
total_dcache2_access        5376051 # total number accesses of dcache2
total_alu_access          112385890 # total number accesses of alu
total_resultbus_access    127478959 # total number accesses of resultbus
avg_rename_access            2.0900 # avg number accesses of rename unit
avg_bpred_access             0.1765 # avg number accesses of bpred unit
avg_window_access            6.5286 # avg number accesses of instruction window
avg_lsq_access               0.5184 # avg number accesses of lsq
avg_regfile_access           2.2972 # avg number accesses of arch. regfile
avg_icache_access            2.2502 # avg number accesses of icache
avg_dcache_access            0.5041 # avg number accesses of dcache
avg_dcache2_access           0.0812 # avg number accesses of dcache2
avg_alu_access               1.6976 # avg number accesses of alu
avg_resultbus_access         1.9256 # avg number accesses of resultbus
max_rename_access                16 # max number accesses of rename unit
max_bpred_access                  6 # max number accesses of bpred unit
max_window_access                45 # max number accesses of instruction window
max_lsq_access                   12 # max number accesses of load/store queue
max_regfile_access               33 # max number accesses of arch. regfile
max_icache_access                16 # max number accesses of icache
max_dcache_access                 8 # max number accesses of dcache
max_dcache2_access                6 # max number accesses of dcache2
max_alu_access                    6 # max number accesses of alu
max_resultbus_access             21 # max number accesses of resultbus
max_cycle_power_cc1        165.0181 # maximum cycle power usage of cc1
max_cycle_power_cc2        104.1135 # maximum cycle power usage of cc2
max_cycle_power_cc3        110.9776 # maximum cycle power usage of cc3
sim_invalid_addrs                 0 # total non-speculative bogus addresses seen (debug var)
ld_text_base           0x0120000000 # program text (code) segment base
ld_text_size                 212992 # program text (code) size in bytes
ld_data_base           0x0140000000 # program initialized data segment base
ld_data_size                 402416 # program init'ed `.data' and uninit'ed `.bss' size in bytes
ld_stack_base          0x011ff9b000 # program stack segment base (highest address in stack)
ld_stack_size                 16384 # program initial stack size
ld_prog_entry          0x01200095e0 # program entry point (initial PC)
ld_environ_base        0x011ff96ef0 # program environment base address address
ld_target_big_endian              0 # target executable endian-ness, non-zero if big endian
mem.page_count                23129 # total number of pages allocated
mem.page_mem                185032k # total size of memory pages allocated
mem.ptab_misses             5405618 # total first level page table misses
mem.ptab_accesses         963166351 # total page table accesses
mem.ptab_miss_rate           0.0056 # first level page table miss rate

