sim-outorder: SimpleScalar/Alpha Tool Set version 3.0 of August, 2003.
Copyright (c) 1994-2003 by Todd M. Austin, Ph.D. and SimpleScalar, LLC.
All Rights Reserved. This version of SimpleScalar is licensed for academic
non-commercial use.  No portion of this work may be used by any commercial
entity, or for any commercial purpose, without the prior written permission
of SimpleScalar, LLC (info@simplescalar.com).


Processor Parameters:
Issue Width: 16
Window Size: 64
Number of Virtual Registers: 32
Number of Physical Registers: 64
Datapath Width: 64
Total Power Consumption: 231.501
Branch Predictor Power Consumption: 3.11615  (1.36%)
 branch target buffer power (W): 2.49493
 local predict power (W): 0.354432
 global predict power (W): 0.0996078
 chooser power (W): 0.0702439
 RAS power (W): 0.0969383
Rename Logic Power Consumption: 3.27072  (1.43%)
 Instruction Decode Power (W): 0.0639661
 RAT decode_power (W): 0.454058
 RAT wordline_power (W): 0.227603
 RAT bitline_power (W): 2.30694
 DCL Comparators (W): 0.218151
Instruction Window Power Consumption: 43.216  (18.8%)
 tagdrive (W): 2.9395
 tagmatch (W): 0.989695
 Selection Logic (W): 0.225484
 decode_power (W): 0.976583
 wordline_power (W): 1.0557
 bitline_power (W): 37.0291
Load/Store Queue Power Consumption: 9.33077  (4.07%)
 tagdrive (W): 4.52311
 tagmatch (W): 1.71883
 decode_power (W): 0.162764
 wordline_power (W): 0.0433172
 bitline_power (W): 2.88275
Arch. Register File Power Consumption: 25.1387  (11%)
 decode_power (W): 0.454058
 wordline_power (W): 1.0557
 bitline_power (W): 23.629
Result Bus Power Consumption: 31.3281  (13.7%)
Total Clock Power: 61.8648  (27%)
Int ALU Power: 4.66013  (2.03%)
FP ALU Power: 28.5621  (12.4%)
Instruction Cache Power Consumption: 2.76773  (1.21%)
 decode_power (W): 0.151353
 wordline_power (W): 0.180479
 bitline_power (W): 1.42251
 senseamp_power (W): 0.768
 tagarray_power (W): 0.245382
Itlb_power (W): 0.264936 (0.115%)
Data Cache Power Consumption: 11.0709  (4.82%)
 decode_power (W): 0.60541
 wordline_power (W): 0.721917
 bitline_power (W): 5.69006
 senseamp_power (W): 3.072
 tagarray_power (W): 0.981529
Dtlb_power (W): 1.80688 (0.787%)
Level 2 Cache Power Consumption: 3.10298 (1.35%)
 decode_power (W): 0.19487
 wordline_power (W): 0.0430878
 bitline_power (W): 1.77274
 senseamp_power (W): 0.192
 tagarray_power (W): 0.900275
sim: loading EIO file: ../benchmarks/176.gcc.00-expr-ref.eio.gz
sim: command line: ./sim-outorder -config ../configs/current.config ../benchmarks/176.gcc.00-expr-ref.eio.gz 

sim: simulation started @ Tue Nov 24 13:08:18 2015, options follow:

sim-outorder: This simulator implements a very detailed out-of-order issue
superscalar processor with a two-level memory system and speculative
execution support.  This simulator is a performance simulator, tracking the
latency of all pipeline operations.

# -config                     # load configuration from a file
# -dumpconfig                 # dump configuration to a file
# -h                    false # print help message    
# -v                    false # verbose operation     
# -d                    false # enable debug message  
# -i                    false # start in Dlite debugger
-seed                       1 # random number generator seed (0 for timer seed)
# -q                    false # initialize and terminate immediately
# -chkpt               <null> # restore EIO trace execution from <fname>
# -redir:sim     ../results/28_23_bp/176.gcc.00-expr-ref.eio.gz.out # redirect simulator output to file (non-interactive only)
# -redir:prog       /dev/null # redirect simulated program output to file
-nice                       0 # simulator scheduling priority
-freq            600000000.0000 # frequency             
-max:inst           100000000 # maximum number of inst's to execute
-fastfwd                    0 # number of insts skipped before timing starts
# -ptrace              <null> # generate pipetrace, i.e., <fname|stdout|stderr> <range>
-fetch:ifqsize             16 # instruction fetch queue size (in insts)
-fetch:mplat               15 # extra branch mis-prediction latency
-fetch:speed                1 # speed of front-end of machine relative to execution core
-bpred                   2lev # branch predictor type {nottaken|taken|perfect|bimod|2lev|comb}
-bpred:bimod     2048 # bimodal predictor config (<table size>)
-bpred:2lev      1 8192 8 0 # 2-level predictor config (<l1size> <l2size> <hist_size> <xor>)
-bpred:comb      1024 # combining predictor config (<meta_table_size>)
-bpred:ras                  8 # return address stack size (0 for no return stack)
-bpred:btb       512 4 # BTB config (<num_sets> <associativity>)
# -bpred:spec_update       <null> # speculative predictors update in {ID|WB} (default non-spec)
-decode:width              16 # instruction decode B/W (insts/cycle)
-issue:width               16 # instruction issue B/W (insts/cycle)
-issue:inorder          false # run pipeline with in-order issue
-issue:wrongpath         true # issue instructions down wrong execution paths
-commit:width              16 # instruction commit B/W (insts/cycle)
-ruu:size                  64 # register update unit (RUU) size
-lsq:size                  64 # load/store queue (LSQ) size
-cache:dl1       dl1:32:64:8:f # l1 data cache config, i.e., {<config>|none}
-cache:dl1lat               1 # l1 data cache hit latency (in cycles)
-cache:dl2       dl2:256:64:8:f # l2 data cache config, i.e., {<config>|none}
-cache:dl2lat               2 # l2 data cache hit latency (in cycles)
-cache:il1       il1:32:64:8:f # l1 inst cache config, i.e., {<config>|dl1|dl2|none}
-cache:il1lat               1 # l1 instruction cache hit latency (in cycles)
-cache:il2                dl2 # l2 instruction cache config, i.e., {<config>|dl2|none}
-cache:il2lat               2 # l2 instruction cache hit latency (in cycles)
-cache:flush            false # flush caches on system calls
-cache:icompress        false # convert 64-bit inst addresses to 32-bit inst equivalents
-mem:lat         103 1 # memory access latency (<first_chunk> <inter_chunk>)
-mem:width                  8 # memory access bus width (in bytes)
-tlb:itlb        itlb:16:4096:4:l # instruction TLB config, i.e., {<config>|none}
-tlb:dtlb        dtlb:32:4096:4:l # data TLB config, i.e., {<config>|none}
-tlb:lat                   30 # inst/data TLB miss latency (in cycles)
-res:ialu                   4 # total number of integer ALU's available
-res:imult                  2 # total number of integer multiplier/dividers available
-res:memport                4 # total number of memory system ports available (to CPU)
-res:fpalu                  8 # total number of floating point ALU's available
-res:fpmult                 2 # total number of floating point multiplier/dividers available
# -pcstat              <null> # profile stat(s) against text addr's (mult uses ok)
-bugcompat              false # operate in backward-compatible bugs mode (for testing only)

  Pipetrace range arguments are formatted as follows:

    {{@|#}<start>}:{{@|#|+}<end>}

  Both ends of the range are optional, if neither are specified, the entire
  execution is traced.  Ranges that start with a `@' designate an address
  range to be traced, those that start with an `#' designate a cycle count
  range.  All other range values represent an instruction count range.  The
  second argument, if specified with a `+', indicates a value relative
  to the first argument, e.g., 1000:+100 == 1000:1100.  Program symbols may
  be used in all contexts.

    Examples:   -ptrace FOO.trc #0:#1000
                -ptrace BAR.trc @2000:
                -ptrace BLAH.trc :1500
                -ptrace UXXE.trc :
                -ptrace FOOBAR.trc @main:+278

  Branch predictor configuration examples for 2-level predictor:
    Configurations:   N, M, W, X
      N   # entries in first level (# of shift register(s))
      W   width of shift register(s)
      M   # entries in 2nd level (# of counters, or other FSM)
      X   (yes-1/no-0) xor history and address for 2nd level index
    Sample predictors:
      GAg     : 1, W, 2^W, 0
      GAp     : 1, W, M (M > 2^W), 0
      PAg     : N, W, 2^W, 0
      PAp     : N, W, M (M == 2^(N+W)), 0
      gshare  : 1, W, 2^W, 1
  Predictor `comb' combines a bimodal and a 2-level predictor.

  The cache config parameter <config> has the following format:

    <name>:<nsets>:<bsize>:<assoc>:<repl>

    <name>   - name of the cache being defined
    <nsets>  - number of sets in the cache
    <bsize>  - block size of the cache
    <assoc>  - associativity of the cache
    <repl>   - block replacement strategy, 'l'-LRU, 'f'-FIFO, 'r'-random

    Examples:   -cache:dl1 dl1:4096:32:1:l
                -dtlb dtlb:128:4096:32:r

  Cache levels can be unified by pointing a level of the instruction cache
  hierarchy at the data cache hiearchy using the "dl1" and "dl2" cache
  configuration arguments.  Most sensible combinations are supported, e.g.,

    A unified l2 cache (il2 is pointed at dl2):
      -cache:il1 il1:128:64:1:l -cache:il2 dl2
      -cache:dl1 dl1:256:32:1:l -cache:dl2 ul2:1024:64:2:l

    Or, a fully unified cache hierarchy (il1 pointed at dl1):
      -cache:il1 dl1
      -cache:dl1 ul1:256:32:1:l -cache:dl2 ul2:1024:64:2:l



sim: ** starting performance simulation **

sim: ** simulation statistics **
sim_num_insn              100000000 # total number of instructions committed
sim_num_refs               62486117 # total number of loads and stores committed
sim_num_loads              45137446 # total number of loads committed
sim_num_stores         17348671.0000 # total number of stores committed
sim_num_branches           10121353 # total number of branches committed
sim_elapsed_time                181 # total simulation time in seconds
sim_inst_rate           552486.1878 # simulation speed (in insts/sec)
sim_total_insn            108274771 # total number of instructions executed
sim_total_refs             66241890 # total number of loads and stores executed
sim_total_loads            48345063 # total number of loads executed
sim_total_stores       17896827.0000 # total number of stores executed
sim_total_branches         11542879 # total number of branches executed
sim_cycle                  53437640 # total simulation time in cycles
sim_IPC                      1.8713 # instructions per cycle
sim_CPI                      0.5344 # cycles per instruction
sim_exec_BW                  2.0262 # total instructions (mis-spec + committed) per cycle
sim_IPB                      9.8801 # instruction per branch
IFQ_count                 597877976 # cumulative IFQ occupancy
IFQ_fcount                 31853985 # cumulative IFQ full count
ifq_occupancy               11.1883 # avg IFQ occupancy (insn's)
ifq_rate                     2.0262 # avg IFQ dispatch rate (insn/cycle)
ifq_latency                  5.5219 # avg IFQ occupant latency (cycle's)
ifq_full                     0.5961 # fraction of time (cycle's) IFQ was full
RUU_count                2606073136 # cumulative RUU occupancy
RUU_fcount                 36951855 # cumulative RUU full count
ruu_occupancy               48.7685 # avg RUU occupancy (insn's)
ruu_rate                     2.0262 # avg RUU dispatch rate (insn/cycle)
ruu_latency                 24.0691 # avg RUU occupant latency (cycle's)
ruu_full                     0.6915 # fraction of time (cycle's) RUU was full
LSQ_count                1432710049 # cumulative LSQ occupancy
LSQ_fcount                        0 # cumulative LSQ full count
lsq_occupancy               26.8109 # avg LSQ occupancy (insn's)
lsq_rate                     2.0262 # avg LSQ dispatch rate (insn/cycle)
lsq_latency                 13.2322 # avg LSQ occupant latency (cycle's)
lsq_full                     0.0000 # fraction of time (cycle's) LSQ was full
sim_slip                 3929359787 # total number of slip cycles
avg_sim_slip                39.2936 # the average slip between issue and retirement
bpred_2lev.lookups         11925269 # total number of bpred lookups
bpred_2lev.updates         10121351 # total number of updates
bpred_2lev.addr_hits        9831423 # total number of address-predicted hits
bpred_2lev.dir_hits         9886608 # total number of direction-predicted hits (includes addr-hits)
bpred_2lev.misses            234743 # total number of misses
bpred_2lev.jr_hits           116370 # total number of address-predicted hits for JR's
bpred_2lev.jr_seen           159316 # total number of JR's seen
bpred_2lev.jr_non_ras_hits.PP        24638 # total number of address-predicted hits for non-RAS JR's
bpred_2lev.jr_non_ras_seen.PP        51936 # total number of non-RAS JR's seen
bpred_2lev.bpred_addr_rate    0.9714 # branch address-prediction rate (i.e., addr-hits/updates)
bpred_2lev.bpred_dir_rate    0.9768 # branch direction-prediction rate (i.e., all-hits/updates)
bpred_2lev.bpred_jr_rate    0.7304 # JR address-prediction rate (i.e., JR addr-hits/JRs seen)
bpred_2lev.bpred_jr_non_ras_rate.PP    0.4744 # non-RAS JR addr-pred rate (ie, non-RAS JR hits/JRs seen)
bpred_2lev.retstack_pushes       207478 # total number of address pushed onto ret-addr stack
bpred_2lev.retstack_pops       184451 # total number of address popped off of ret-addr stack
bpred_2lev.used_ras.PP       107380 # total number of RAS predictions used
bpred_2lev.ras_hits.PP        91732 # total number of RAS hits
bpred_2lev.ras_rate.PP    0.8543 # RAS prediction rate (i.e., RAS hits/used RAS)
il1.accesses              110345670 # total number of accesses
il1.hits                  110248418 # total number of hits
il1.misses                    97252 # total number of misses
il1.replacements              96996 # total number of replacements
il1.writebacks                    0 # total number of writebacks
il1.invalidations                 0 # total number of invalidations
il1.miss_rate                0.0009 # miss rate (i.e., misses/ref)
il1.repl_rate                0.0009 # replacement rate (i.e., repls/ref)
il1.wb_rate                  0.0000 # writeback rate (i.e., wrbks/ref)
il1.inv_rate                 0.0000 # invalidation rate (i.e., invs/ref)
dl1.accesses               63397694 # total number of accesses
dl1.hits                   61031709 # total number of hits
dl1.misses                  2365985 # total number of misses
dl1.replacements            2365729 # total number of replacements
dl1.writebacks              2077391 # total number of writebacks
dl1.invalidations                 0 # total number of invalidations
dl1.miss_rate                0.0373 # miss rate (i.e., misses/ref)
dl1.repl_rate                0.0373 # replacement rate (i.e., repls/ref)
dl1.wb_rate                  0.0328 # writeback rate (i.e., wrbks/ref)
dl1.inv_rate                 0.0000 # invalidation rate (i.e., invs/ref)
dl2.accesses                4540628 # total number of accesses
dl2.hits                    2704942 # total number of hits
dl2.misses                  1835686 # total number of misses
dl2.replacements            1833638 # total number of replacements
dl2.writebacks              1500057 # total number of writebacks
dl2.invalidations                 0 # total number of invalidations
dl2.miss_rate                0.4043 # miss rate (i.e., misses/ref)
dl2.repl_rate                0.4038 # replacement rate (i.e., repls/ref)
dl2.wb_rate                  0.3304 # writeback rate (i.e., wrbks/ref)
dl2.inv_rate                 0.0000 # invalidation rate (i.e., invs/ref)
itlb.accesses             110345670 # total number of accesses
itlb.hits                 110343121 # total number of hits
itlb.misses                    2549 # total number of misses
itlb.replacements              2486 # total number of replacements
itlb.writebacks                   0 # total number of writebacks
itlb.invalidations                0 # total number of invalidations
itlb.miss_rate               0.0000 # miss rate (i.e., misses/ref)
itlb.repl_rate               0.0000 # replacement rate (i.e., repls/ref)
itlb.wb_rate                 0.0000 # writeback rate (i.e., wrbks/ref)
itlb.inv_rate                0.0000 # invalidation rate (i.e., invs/ref)
dtlb.accesses              63622557 # total number of accesses
dtlb.hits                  63590152 # total number of hits
dtlb.misses                   32405 # total number of misses
dtlb.replacements             32277 # total number of replacements
dtlb.writebacks                   0 # total number of writebacks
dtlb.invalidations                0 # total number of invalidations
dtlb.miss_rate               0.0005 # miss rate (i.e., misses/ref)
dtlb.repl_rate               0.0005 # replacement rate (i.e., repls/ref)
dtlb.wb_rate                 0.0000 # writeback rate (i.e., wrbks/ref)
dtlb.inv_rate                0.0000 # invalidation rate (i.e., invs/ref)
rename_power           174779478.6855 # total power usage of rename unit
bpred_power            166519719.5745 # total power usage of bpred unit
window_power           2309362633.7532 # total power usage of instruction window
lsq_power              498614440.2980 # total power usage of load/store queue
regfile_power          1343355081.6658 # total power usage of arch. regfile
icache_power           162058417.2995 # total power usage of icache
dcache_power           688159033.4082 # total power usage of dcache
dcache2_power          165815755.5592 # total power usage of dcache2
alu_power              1775317051.9003 # total power usage of alu
falu_power             1526290678.5159 # total power usage of falu
resultbus_power        1674100593.2192 # total power usage of resultbus
clock_power            3305908629.1028 # total power usage of clock
avg_rename_power             3.2707 # avg power usage of rename unit
avg_bpred_power              3.1162 # avg power usage of bpred unit
avg_window_power            43.2160 # avg power usage of instruction window
avg_lsq_power                9.3308 # avg power usage of lsq
avg_regfile_power           25.1387 # avg power usage of arch. regfile
avg_icache_power             3.0327 # avg power usage of icache
avg_dcache_power            12.8778 # avg power usage of dcache
avg_dcache2_power            3.1030 # avg power usage of dcache2
avg_alu_power               33.2222 # avg power usage of alu
avg_falu_power              28.5621 # avg power usage of falu
avg_resultbus_power         31.3281 # avg power usage of resultbus
avg_clock_power             61.8648 # avg power usage of clock
fetch_stage_power      328578136.8740 # total power usage of fetch stage
dispatch_stage_power   174779478.6855 # total power usage of dispatch stage
issue_stage_power      7111369508.1381 # total power usage of issue stage
avg_fetch_power              6.1488 # average power of fetch unit per cycle
avg_dispatch_power           3.2707 # average power of dispatch unit per cycle
avg_issue_power            133.0779 # average power of issue unit per cycle
total_power            12263990834.4661 # total power per cycle
avg_total_power_cycle      229.5010 # average total power per cycle
avg_total_power_cycle_nofp_nod2     197.8359 # average total power per cycle
avg_total_power_insn       113.2673 # average total power per insn
avg_total_power_insn_nofp_nod2      97.6394 # average total power per insn
rename_power_cc1       75998634.6947 # total power usage of rename unit_cc1
bpred_power_cc1        21773033.1642 # total power usage of bpred unit_cc1
window_power_cc1       1078105939.5528 # total power usage of instruction window_cc1
lsq_power_cc1          182027106.4968 # total power usage of lsq_cc1
regfile_power_cc1      531985357.7819 # total power usage of arch. regfile_cc1
icache_power_cc1       72329553.5227 # total power usage of icache_cc1
dcache_power_cc1       299467952.4436 # total power usage of dcache_cc1
dcache2_power_cc1      7592434.9343 # total power usage of dcache2_cc1
alu_power_cc1          123467657.5519 # total power usage of alu_cc1
resultbus_power_cc1    788845022.4069 # total power usage of resultbus_cc1
clock_power_cc1        1164444131.1295 # total power usage of clock_cc1
avg_rename_power_cc1         1.4222 # avg power usage of rename unit_cc1
avg_bpred_power_cc1          0.4074 # avg power usage of bpred unit_cc1
avg_window_power_cc1        20.1750 # avg power usage of instruction window_cc1
avg_lsq_power_cc1            3.4063 # avg power usage of lsq_cc1
avg_regfile_power_cc1        9.9553 # avg power usage of arch. regfile_cc1
avg_icache_power_cc1         1.3535 # avg power usage of icache_cc1
avg_dcache_power_cc1         5.6041 # avg power usage of dcache_cc1
avg_dcache2_power_cc1        0.1421 # avg power usage of dcache2_cc1
avg_alu_power_cc1            2.3105 # avg power usage of alu_cc1
avg_resultbus_power_cc1      14.7620 # avg power usage of resultbus_cc1
avg_clock_power_cc1         21.7907 # avg power usage of clock_cc1
fetch_stage_power_cc1  94102586.6869 # total power usage of fetch stage_cc1
dispatch_stage_power_cc1 75998634.6947 # total power usage of dispatch stage_cc1
issue_stage_power_cc1  2479506113.3863 # total power usage of issue stage_cc1
avg_fetch_power_cc1          1.7610 # average power of fetch unit per cycle_cc1
avg_dispatch_power_cc1       1.4222 # average power of dispatch unit per cycle_cc1
avg_issue_power_cc1         46.4000 # average power of issue unit per cycle_cc1
total_power_cycle_cc1  4346036823.6793 # total power per cycle_cc1
avg_total_power_cycle_cc1      81.3291 # average total power per cycle_cc1
avg_total_power_insn_cc1      40.1390 # average total power per insn_cc1
rename_power_cc2       22133518.6765 # total power usage of rename unit_cc2
bpred_power_cc2        15769825.6401 # total power usage of bpred unit_cc2
window_power_cc2       466018626.3838 # total power usage of instruction window_cc2
lsq_power_cc2          85711925.8034 # total power usage of lsq_cc2
regfile_power_cc2      62160191.5257 # total power usage of arch. regfile_cc2
icache_power_cc2       72329553.5227 # total power usage of icache_cc2
dcache_power_cc2       204105644.4106 # total power usage of dcache_cc2
dcache2_power_cc2      3522365.8037 # total power usage of dcache2_cc2
alu_power_cc2          117601162.3521 # total power usage of alu_cc2
resultbus_power_cc2    254260399.0125 # total power usage of resultbus_cc2
clock_power_cc2        472526507.2323 # total power usage of clock_cc2
avg_rename_power_cc2         0.4142 # avg power usage of rename unit_cc2
avg_bpred_power_cc2          0.2951 # avg power usage of bpred unit_cc2
avg_window_power_cc2         8.7208 # avg power usage of instruction window_cc2
avg_lsq_power_cc2            1.6040 # avg power usage of instruction lsq_cc2
avg_regfile_power_cc2        1.1632 # avg power usage of arch. regfile_cc2
avg_icache_power_cc2         1.3535 # avg power usage of icache_cc2
avg_dcache_power_cc2         3.8195 # avg power usage of dcache_cc2
avg_dcache2_power_cc2        0.0659 # avg power usage of dcache2_cc2
avg_alu_power_cc2            2.2007 # avg power usage of alu_cc2
avg_resultbus_power_cc2       4.7581 # avg power usage of resultbus_cc2
avg_clock_power_cc2          8.8426 # avg power usage of clock_cc2
fetch_stage_power_cc2  88099379.1628 # total power usage of fetch stage_cc2
dispatch_stage_power_cc2 22133518.6765 # total power usage of dispatch stage_cc2
issue_stage_power_cc2  1131220123.7660 # total power usage of issue stage_cc2
avg_fetch_power_cc2          1.6486 # average power of fetch unit per cycle_cc2
avg_dispatch_power_cc2       0.4142 # average power of dispatch unit per cycle_cc2
avg_issue_power_cc2         21.1690 # average power of issue unit per cycle_cc2
total_power_cycle_cc2  1776139720.3633 # total power per cycle_cc2
avg_total_power_cycle_cc2      33.2376 # average total power per cycle_cc2
avg_total_power_insn_cc2      16.4040 # average total power per insn_cc2
rename_power_cc3       32011603.1102 # total power usage of rename unit_cc3
bpred_power_cc3        30352845.8289 # total power usage of bpred unit_cc3
window_power_cc3       577081846.3583 # total power usage of instruction window_cc3
lsq_power_cc3          117313861.0572 # total power usage of lsq_cc3
regfile_power_cc3      136241760.9214 # total power usage of arch. regfile_cc3
icache_power_cc3       81302439.9504 # total power usage of icache_cc3
dcache_power_cc3       243521486.2482 # total power usage of dcache_cc3
dcache2_power_cc3      19344737.5876 # total power usage of dcache2_cc3
alu_power_cc3          282786101.3270 # total power usage of alu_cc3
resultbus_power_cc3    337528648.7376 # total power usage of resultbus_cc3
clock_power_cc3        677823699.5946 # total power usage of clock_cc3
avg_rename_power_cc3         0.5990 # avg power usage of rename unit_cc3
avg_bpred_power_cc3          0.5680 # avg power usage of bpred unit_cc3
avg_window_power_cc3        10.7992 # avg power usage of instruction window_cc3
avg_lsq_power_cc3            2.1953 # avg power usage of instruction lsq_cc3
avg_regfile_power_cc3        2.5495 # avg power usage of arch. regfile_cc3
avg_icache_power_cc3         1.5214 # avg power usage of icache_cc3
avg_dcache_power_cc3         4.5571 # avg power usage of dcache_cc3
avg_dcache2_power_cc3        0.3620 # avg power usage of dcache2_cc3
avg_alu_power_cc3            5.2919 # avg power usage of alu_cc3
avg_resultbus_power_cc3       6.3163 # avg power usage of resultbus_cc3
avg_clock_power_cc3         12.6844 # avg power usage of clock_cc3
fetch_stage_power_cc3  111655285.7793 # total power usage of fetch stage_cc3
dispatch_stage_power_cc3 32011603.1102 # total power usage of dispatch stage_cc3
issue_stage_power_cc3  1577576681.3159 # total power usage of issue stage_cc3
avg_fetch_power_cc3          2.0895 # average power of fetch unit per cycle_cc3
avg_dispatch_power_cc3       0.5990 # average power of dispatch unit per cycle_cc3
avg_issue_power_cc3         29.5218 # average power of issue unit per cycle_cc3
total_power_cycle_cc3  2535309030.7214 # total power per cycle_cc3
avg_total_power_cycle_cc3      47.4443 # average total power per cycle_cc3
avg_total_power_insn_cc3      23.4155 # average total power per insn_cc3
total_rename_access       108274771 # total number accesses of rename unit
total_bpred_access         10121351 # total number accesses of bpred unit
total_window_access       438054525 # total number accesses of instruction window
total_lsq_access           64040162 # total number accesses of load/store queue
total_regfile_access      134787730 # total number accesses of arch. regfile
total_icache_access       110671246 # total number accesses of icache
total_dcache_access        63397694 # total number accesses of dcache
total_dcache2_access        4540628 # total number accesses of dcache2
total_alu_access          100941614 # total number accesses of alu
total_resultbus_access    138513834 # total number accesses of resultbus
avg_rename_access            2.0262 # avg number accesses of rename unit
avg_bpred_access             0.1894 # avg number accesses of bpred unit
avg_window_access            8.1975 # avg number accesses of instruction window
avg_lsq_access               1.1984 # avg number accesses of lsq
avg_regfile_access           2.5223 # avg number accesses of arch. regfile
avg_icache_access            2.0710 # avg number accesses of icache
avg_dcache_access            1.1864 # avg number accesses of dcache
avg_dcache2_access           0.0850 # avg number accesses of dcache2
avg_alu_access               1.8890 # avg number accesses of alu
avg_resultbus_access         2.5921 # avg number accesses of resultbus
max_rename_access                16 # max number accesses of rename unit
max_bpred_access                  7 # max number accesses of bpred unit
max_window_access                48 # max number accesses of instruction window
max_lsq_access                   14 # max number accesses of load/store queue
max_regfile_access               41 # max number accesses of arch. regfile
max_icache_access                16 # max number accesses of icache
max_dcache_access                 8 # max number accesses of dcache
max_dcache2_access                8 # max number accesses of dcache2
max_alu_access                    7 # max number accesses of alu
max_resultbus_access             35 # max number accesses of resultbus
max_cycle_power_cc1        177.3064 # maximum cycle power usage of cc1
max_cycle_power_cc2        108.9418 # maximum cycle power usage of cc2
max_cycle_power_cc3        121.6622 # maximum cycle power usage of cc3
sim_invalid_addrs                 0 # total non-speculative bogus addresses seen (debug var)
ld_text_base           0x0120000000 # program text (code) segment base
ld_text_size                1990656 # program text (code) size in bytes
ld_data_base           0x0140000000 # program initialized data segment base
ld_data_size                 306320 # program init'ed `.data' and uninit'ed `.bss' size in bytes
ld_stack_base          0x011ff9b000 # program stack segment base (highest address in stack)
ld_stack_size                 16384 # program initial stack size
ld_prog_entry          0x01201cdbd8 # program entry point (initial PC)
ld_environ_base        0x011fe9e770 # program environment base address address
ld_target_big_endian              0 # target executable endian-ness, non-zero if big endian
mem.page_count                 2015 # total number of pages allocated
mem.page_mem                 16120k # total size of memory pages allocated
mem.ptab_misses               15025 # total first level page table misses
mem.ptab_accesses        1188071534 # total page table accesses
mem.ptab_miss_rate           0.0000 # first level page table miss rate

