sim-outorder: SimpleScalar/Alpha Tool Set version 3.0 of August, 2003.
Copyright (c) 1994-2003 by Todd M. Austin, Ph.D. and SimpleScalar, LLC.
All Rights Reserved. This version of SimpleScalar is licensed for academic
non-commercial use.  No portion of this work may be used by any commercial
entity, or for any commercial purpose, without the prior written permission
of SimpleScalar, LLC (info@simplescalar.com).


Processor Parameters:
Issue Width: 16
Window Size: 64
Number of Virtual Registers: 32
Number of Physical Registers: 64
Datapath Width: 64
Total Power Consumption: 231.501
Branch Predictor Power Consumption: 3.11615  (1.36%)
 branch target buffer power (W): 2.49493
 local predict power (W): 0.354432
 global predict power (W): 0.0996078
 chooser power (W): 0.0702439
 RAS power (W): 0.0969383
Rename Logic Power Consumption: 3.27072  (1.43%)
 Instruction Decode Power (W): 0.0639661
 RAT decode_power (W): 0.454058
 RAT wordline_power (W): 0.227603
 RAT bitline_power (W): 2.30694
 DCL Comparators (W): 0.218151
Instruction Window Power Consumption: 43.216  (18.8%)
 tagdrive (W): 2.9395
 tagmatch (W): 0.989695
 Selection Logic (W): 0.225484
 decode_power (W): 0.976583
 wordline_power (W): 1.0557
 bitline_power (W): 37.0291
Load/Store Queue Power Consumption: 9.33077  (4.07%)
 tagdrive (W): 4.52311
 tagmatch (W): 1.71883
 decode_power (W): 0.162764
 wordline_power (W): 0.0433172
 bitline_power (W): 2.88275
Arch. Register File Power Consumption: 25.1387  (11%)
 decode_power (W): 0.454058
 wordline_power (W): 1.0557
 bitline_power (W): 23.629
Result Bus Power Consumption: 31.3281  (13.7%)
Total Clock Power: 61.8648  (27%)
Int ALU Power: 4.66013  (2.03%)
FP ALU Power: 28.5621  (12.4%)
Instruction Cache Power Consumption: 2.76773  (1.21%)
 decode_power (W): 0.151353
 wordline_power (W): 0.180479
 bitline_power (W): 1.42251
 senseamp_power (W): 0.768
 tagarray_power (W): 0.245382
Itlb_power (W): 0.264936 (0.115%)
Data Cache Power Consumption: 11.0709  (4.82%)
 decode_power (W): 0.60541
 wordline_power (W): 0.721917
 bitline_power (W): 5.69006
 senseamp_power (W): 3.072
 tagarray_power (W): 0.981529
Dtlb_power (W): 1.80688 (0.787%)
Level 2 Cache Power Consumption: 3.10298 (1.35%)
 decode_power (W): 0.19487
 wordline_power (W): 0.0430878
 bitline_power (W): 1.77274
 senseamp_power (W): 0.192
 tagarray_power (W): 0.900275
sim: loading EIO file: ../benchmarks/178.galgel.spec_ref.eio.gz
sim: command line: ./sim-outorder -config ../configs/current.config ../benchmarks/178.galgel.spec_ref.eio.gz 

sim: simulation started @ Tue Nov 24 13:08:21 2015, options follow:

sim-outorder: This simulator implements a very detailed out-of-order issue
superscalar processor with a two-level memory system and speculative
execution support.  This simulator is a performance simulator, tracking the
latency of all pipeline operations.

# -config                     # load configuration from a file
# -dumpconfig                 # dump configuration to a file
# -h                    false # print help message    
# -v                    false # verbose operation     
# -d                    false # enable debug message  
# -i                    false # start in Dlite debugger
-seed                       1 # random number generator seed (0 for timer seed)
# -q                    false # initialize and terminate immediately
# -chkpt               <null> # restore EIO trace execution from <fname>
# -redir:sim     ../results/28_23_bp/178.galgel.spec_ref.eio.gz.out # redirect simulator output to file (non-interactive only)
# -redir:prog       /dev/null # redirect simulated program output to file
-nice                       0 # simulator scheduling priority
-freq            600000000.0000 # frequency             
-max:inst           100000000 # maximum number of inst's to execute
-fastfwd                    0 # number of insts skipped before timing starts
# -ptrace              <null> # generate pipetrace, i.e., <fname|stdout|stderr> <range>
-fetch:ifqsize             16 # instruction fetch queue size (in insts)
-fetch:mplat               15 # extra branch mis-prediction latency
-fetch:speed                1 # speed of front-end of machine relative to execution core
-bpred                   2lev # branch predictor type {nottaken|taken|perfect|bimod|2lev|comb}
-bpred:bimod     2048 # bimodal predictor config (<table size>)
-bpred:2lev      1 8192 8 0 # 2-level predictor config (<l1size> <l2size> <hist_size> <xor>)
-bpred:comb      1024 # combining predictor config (<meta_table_size>)
-bpred:ras                  8 # return address stack size (0 for no return stack)
-bpred:btb       512 4 # BTB config (<num_sets> <associativity>)
# -bpred:spec_update       <null> # speculative predictors update in {ID|WB} (default non-spec)
-decode:width              16 # instruction decode B/W (insts/cycle)
-issue:width               16 # instruction issue B/W (insts/cycle)
-issue:inorder          false # run pipeline with in-order issue
-issue:wrongpath         true # issue instructions down wrong execution paths
-commit:width              16 # instruction commit B/W (insts/cycle)
-ruu:size                  64 # register update unit (RUU) size
-lsq:size                  64 # load/store queue (LSQ) size
-cache:dl1       dl1:32:64:8:f # l1 data cache config, i.e., {<config>|none}
-cache:dl1lat               1 # l1 data cache hit latency (in cycles)
-cache:dl2       dl2:256:64:8:f # l2 data cache config, i.e., {<config>|none}
-cache:dl2lat               2 # l2 data cache hit latency (in cycles)
-cache:il1       il1:32:64:8:f # l1 inst cache config, i.e., {<config>|dl1|dl2|none}
-cache:il1lat               1 # l1 instruction cache hit latency (in cycles)
-cache:il2                dl2 # l2 instruction cache config, i.e., {<config>|dl2|none}
-cache:il2lat               2 # l2 instruction cache hit latency (in cycles)
-cache:flush            false # flush caches on system calls
-cache:icompress        false # convert 64-bit inst addresses to 32-bit inst equivalents
-mem:lat         103 1 # memory access latency (<first_chunk> <inter_chunk>)
-mem:width                  8 # memory access bus width (in bytes)
-tlb:itlb        itlb:16:4096:4:l # instruction TLB config, i.e., {<config>|none}
-tlb:dtlb        dtlb:32:4096:4:l # data TLB config, i.e., {<config>|none}
-tlb:lat                   30 # inst/data TLB miss latency (in cycles)
-res:ialu                   4 # total number of integer ALU's available
-res:imult                  2 # total number of integer multiplier/dividers available
-res:memport                4 # total number of memory system ports available (to CPU)
-res:fpalu                  8 # total number of floating point ALU's available
-res:fpmult                 2 # total number of floating point multiplier/dividers available
# -pcstat              <null> # profile stat(s) against text addr's (mult uses ok)
-bugcompat              false # operate in backward-compatible bugs mode (for testing only)

  Pipetrace range arguments are formatted as follows:

    {{@|#}<start>}:{{@|#|+}<end>}

  Both ends of the range are optional, if neither are specified, the entire
  execution is traced.  Ranges that start with a `@' designate an address
  range to be traced, those that start with an `#' designate a cycle count
  range.  All other range values represent an instruction count range.  The
  second argument, if specified with a `+', indicates a value relative
  to the first argument, e.g., 1000:+100 == 1000:1100.  Program symbols may
  be used in all contexts.

    Examples:   -ptrace FOO.trc #0:#1000
                -ptrace BAR.trc @2000:
                -ptrace BLAH.trc :1500
                -ptrace UXXE.trc :
                -ptrace FOOBAR.trc @main:+278

  Branch predictor configuration examples for 2-level predictor:
    Configurations:   N, M, W, X
      N   # entries in first level (# of shift register(s))
      W   width of shift register(s)
      M   # entries in 2nd level (# of counters, or other FSM)
      X   (yes-1/no-0) xor history and address for 2nd level index
    Sample predictors:
      GAg     : 1, W, 2^W, 0
      GAp     : 1, W, M (M > 2^W), 0
      PAg     : N, W, 2^W, 0
      PAp     : N, W, M (M == 2^(N+W)), 0
      gshare  : 1, W, 2^W, 1
  Predictor `comb' combines a bimodal and a 2-level predictor.

  The cache config parameter <config> has the following format:

    <name>:<nsets>:<bsize>:<assoc>:<repl>

    <name>   - name of the cache being defined
    <nsets>  - number of sets in the cache
    <bsize>  - block size of the cache
    <assoc>  - associativity of the cache
    <repl>   - block replacement strategy, 'l'-LRU, 'f'-FIFO, 'r'-random

    Examples:   -cache:dl1 dl1:4096:32:1:l
                -dtlb dtlb:128:4096:32:r

  Cache levels can be unified by pointing a level of the instruction cache
  hierarchy at the data cache hiearchy using the "dl1" and "dl2" cache
  configuration arguments.  Most sensible combinations are supported, e.g.,

    A unified l2 cache (il2 is pointed at dl2):
      -cache:il1 il1:128:64:1:l -cache:il2 dl2
      -cache:dl1 dl1:256:32:1:l -cache:dl2 ul2:1024:64:2:l

    Or, a fully unified cache hierarchy (il1 pointed at dl1):
      -cache:il1 dl1
      -cache:dl1 ul1:256:32:1:l -cache:dl2 ul2:1024:64:2:l



sim: ** starting performance simulation **

sim: ** simulation statistics **
sim_num_insn              100000012 # total number of instructions committed
sim_num_refs               44609066 # total number of loads and stores committed
sim_num_loads              39597083 # total number of loads committed
sim_num_stores         5011983.0000 # total number of stores committed
sim_num_branches            4613099 # total number of branches committed
sim_elapsed_time                158 # total simulation time in seconds
sim_inst_rate           632911.4684 # simulation speed (in insts/sec)
sim_total_insn            100362322 # total number of instructions executed
sim_total_refs             44772887 # total number of loads and stores executed
sim_total_loads            39753715 # total number of loads executed
sim_total_stores       5019172.0000 # total number of stores executed
sim_total_branches          4627200 # total number of branches executed
sim_cycle                  82299480 # total simulation time in cycles
sim_IPC                      1.2151 # instructions per cycle
sim_CPI                      0.8230 # cycles per instruction
sim_exec_BW                  1.2195 # total instructions (mis-spec + committed) per cycle
sim_IPB                     21.6774 # instruction per branch
IFQ_count                1295257009 # cumulative IFQ occupancy
IFQ_fcount                 79166622 # cumulative IFQ full count
ifq_occupancy               15.7383 # avg IFQ occupancy (insn's)
ifq_rate                     1.2195 # avg IFQ dispatch rate (insn/cycle)
ifq_latency                 12.9058 # avg IFQ occupant latency (cycle's)
ifq_full                     0.9619 # fraction of time (cycle's) IFQ was full
RUU_count                5239100802 # cumulative RUU occupancy
RUU_fcount                 79812798 # cumulative RUU full count
ruu_occupancy               63.6590 # avg RUU occupancy (insn's)
ruu_rate                     1.2195 # avg RUU dispatch rate (insn/cycle)
ruu_latency                 52.2019 # avg RUU occupant latency (cycle's)
ruu_full                     0.9698 # fraction of time (cycle's) RUU was full
LSQ_count                2361020119 # cumulative LSQ occupancy
LSQ_fcount                        0 # cumulative LSQ full count
lsq_occupancy               28.6882 # avg LSQ occupancy (insn's)
lsq_rate                     1.2195 # avg LSQ dispatch rate (insn/cycle)
lsq_latency                 23.5250 # avg LSQ occupant latency (cycle's)
lsq_full                     0.0000 # fraction of time (cycle's) LSQ was full
sim_slip                 7743744015 # total number of slip cycles
avg_sim_slip                77.4374 # the average slip between issue and retirement
bpred_2lev.lookups          4641301 # total number of bpred lookups
bpred_2lev.updates          4613097 # total number of updates
bpred_2lev.addr_hits        4591567 # total number of address-predicted hits
bpred_2lev.dir_hits         4591571 # total number of direction-predicted hits (includes addr-hits)
bpred_2lev.misses             21526 # total number of misses
bpred_2lev.jr_hits                0 # total number of address-predicted hits for JR's
bpred_2lev.jr_seen                0 # total number of JR's seen
bpred_2lev.jr_non_ras_hits.PP            0 # total number of address-predicted hits for non-RAS JR's
bpred_2lev.jr_non_ras_seen.PP            0 # total number of non-RAS JR's seen
bpred_2lev.bpred_addr_rate    0.9953 # branch address-prediction rate (i.e., addr-hits/updates)
bpred_2lev.bpred_dir_rate    0.9953 # branch direction-prediction rate (i.e., all-hits/updates)
bpred_2lev.bpred_jr_rate <error: divide by zero> # JR address-prediction rate (i.e., JR addr-hits/JRs seen)
bpred_2lev.bpred_jr_non_ras_rate.PP <error: divide by zero> # non-RAS JR addr-pred rate (ie, non-RAS JR hits/JRs seen)
bpred_2lev.retstack_pushes            0 # total number of address pushed onto ret-addr stack
bpred_2lev.retstack_pops            0 # total number of address popped off of ret-addr stack
bpred_2lev.used_ras.PP            0 # total number of RAS predictions used
bpred_2lev.ras_hits.PP            0 # total number of RAS hits
bpred_2lev.ras_rate.PP <error: divide by zero> # RAS prediction rate (i.e., RAS hits/used RAS)
il1.accesses              100704183 # total number of accesses
il1.hits                  100704152 # total number of hits
il1.misses                       31 # total number of misses
il1.replacements                  0 # total number of replacements
il1.writebacks                    0 # total number of writebacks
il1.invalidations                 0 # total number of invalidations
il1.miss_rate                0.0000 # miss rate (i.e., misses/ref)
il1.repl_rate                0.0000 # replacement rate (i.e., repls/ref)
il1.wb_rate                  0.0000 # writeback rate (i.e., wrbks/ref)
il1.inv_rate                 0.0000 # invalidation rate (i.e., invs/ref)
dl1.accesses               44593546 # total number of accesses
dl1.hits                   37069376 # total number of hits
dl1.misses                  7524170 # total number of misses
dl1.replacements            7523914 # total number of replacements
dl1.writebacks              2494554 # total number of writebacks
dl1.invalidations                 0 # total number of invalidations
dl1.miss_rate                0.1687 # miss rate (i.e., misses/ref)
dl1.repl_rate                0.1687 # replacement rate (i.e., repls/ref)
dl1.wb_rate                  0.0559 # writeback rate (i.e., wrbks/ref)
dl1.inv_rate                 0.0000 # invalidation rate (i.e., invs/ref)
dl2.accesses               10018755 # total number of accesses
dl2.hits                    8966432 # total number of hits
dl2.misses                  1052323 # total number of misses
dl2.replacements            1050275 # total number of replacements
dl2.writebacks               321290 # total number of writebacks
dl2.invalidations                 0 # total number of invalidations
dl2.miss_rate                0.1050 # miss rate (i.e., misses/ref)
dl2.repl_rate                0.1048 # replacement rate (i.e., repls/ref)
dl2.wb_rate                  0.0321 # writeback rate (i.e., wrbks/ref)
dl2.inv_rate                 0.0000 # invalidation rate (i.e., invs/ref)
itlb.accesses             100704183 # total number of accesses
itlb.hits                 100704182 # total number of hits
itlb.misses                       1 # total number of misses
itlb.replacements                 0 # total number of replacements
itlb.writebacks                   0 # total number of writebacks
itlb.invalidations                0 # total number of invalidations
itlb.miss_rate               0.0000 # miss rate (i.e., misses/ref)
itlb.repl_rate               0.0000 # replacement rate (i.e., repls/ref)
itlb.wb_rate                 0.0000 # writeback rate (i.e., wrbks/ref)
itlb.inv_rate                0.0000 # invalidation rate (i.e., invs/ref)
dtlb.accesses              44609143 # total number of accesses
dtlb.hits                  39451811 # total number of hits
dtlb.misses                 5157332 # total number of misses
dtlb.replacements           5157204 # total number of replacements
dtlb.writebacks                   0 # total number of writebacks
dtlb.invalidations                0 # total number of invalidations
dtlb.miss_rate               0.1156 # miss rate (i.e., misses/ref)
dtlb.repl_rate               0.1156 # replacement rate (i.e., repls/ref)
dtlb.wb_rate                 0.0000 # writeback rate (i.e., wrbks/ref)
dtlb.inv_rate                0.0000 # invalidation rate (i.e., invs/ref)
rename_power           269178433.1481 # total power usage of rename unit
bpred_power            256457551.5141 # total power usage of bpred unit
window_power           3556656766.7739 # total power usage of instruction window
lsq_power              767917690.3030 # total power usage of load/store queue
regfile_power          2068905450.8506 # total power usage of arch. regfile
icache_power           249586685.6306 # total power usage of icache
dcache_power           1059835926.1087 # total power usage of dcache
dcache2_power          255373374.5959 # total power usage of dcache2
alu_power              2734171462.1312 # total power usage of alu
falu_power             2350645147.8538 # total power usage of falu
resultbus_power        2578287666.5863 # total power usage of resultbus
clock_power            5091440436.2658 # total power usage of clock
avg_rename_power             3.2707 # avg power usage of rename unit
avg_bpred_power              3.1162 # avg power usage of bpred unit
avg_window_power            43.2160 # avg power usage of instruction window
avg_lsq_power                9.3308 # avg power usage of lsq
avg_regfile_power           25.1387 # avg power usage of arch. regfile
avg_icache_power             3.0327 # avg power usage of icache
avg_dcache_power            12.8778 # avg power usage of dcache
avg_dcache2_power            3.1030 # avg power usage of dcache2
avg_alu_power               33.2222 # avg power usage of alu
avg_falu_power              28.5621 # avg power usage of falu
avg_resultbus_power         31.3281 # avg power usage of resultbus
avg_clock_power             61.8648 # avg power usage of clock
fetch_stage_power      506044237.1447 # total power usage of fetch stage
dispatch_stage_power   269178433.1481 # total power usage of dispatch stage
issue_stage_power      10952242886.4990 # total power usage of issue stage
avg_fetch_power              6.1488 # average power of fetch unit per cycle
avg_dispatch_power           3.2707 # average power of dispatch unit per cycle
avg_issue_power            133.0779 # average power of issue unit per cycle
total_power            18887811443.9081 # total power per cycle
avg_total_power_cycle      229.5010 # average total power per cycle
avg_total_power_cycle_nofp_nod2     197.8359 # average total power per cycle
avg_total_power_insn       188.1962 # average total power per insn
avg_total_power_insn_nofp_nod2     162.2301 # average total power per insn
rename_power_cc1       38299538.2415 # total power usage of rename unit_cc1
bpred_power_cc1        12839335.5462 # total power usage of bpred unit_cc1
window_power_cc1       1185991301.9246 # total power usage of instruction window_cc1
lsq_power_cc1          136224964.5764 # total power usage of lsq_cc1
regfile_power_cc1      255584023.0835 # total power usage of arch. regfile_cc1
icache_power_cc1       40175516.0792 # total power usage of icache_cc1
dcache_power_cc1       285367911.8109 # total power usage of dcache_cc1
dcache2_power_cc1      18211332.6664 # total power usage of dcache2_cc1
alu_power_cc1          573405523.9940 # total power usage of alu_cc1
resultbus_power_cc1    846769755.1573 # total power usage of resultbus_cc1
clock_power_cc1        1269486071.3562 # total power usage of clock_cc1
avg_rename_power_cc1         0.4654 # avg power usage of rename unit_cc1
avg_bpred_power_cc1          0.1560 # avg power usage of bpred unit_cc1
avg_window_power_cc1        14.4107 # avg power usage of instruction window_cc1
avg_lsq_power_cc1            1.6552 # avg power usage of lsq_cc1
avg_regfile_power_cc1        3.1055 # avg power usage of arch. regfile_cc1
avg_icache_power_cc1         0.4882 # avg power usage of icache_cc1
avg_dcache_power_cc1         3.4674 # avg power usage of dcache_cc1
avg_dcache2_power_cc1        0.2213 # avg power usage of dcache2_cc1
avg_alu_power_cc1            6.9673 # avg power usage of alu_cc1
avg_resultbus_power_cc1      10.2889 # avg power usage of resultbus_cc1
avg_clock_power_cc1         15.4252 # avg power usage of clock_cc1
fetch_stage_power_cc1  53014851.6254 # total power usage of fetch stage_cc1
dispatch_stage_power_cc1 38299538.2415 # total power usage of dispatch stage_cc1
issue_stage_power_cc1  3045970790.1296 # total power usage of issue stage_cc1
avg_fetch_power_cc1          0.6442 # average power of fetch unit per cycle_cc1
avg_dispatch_power_cc1       0.4654 # average power of dispatch unit per cycle_cc1
avg_issue_power_cc1         37.0108 # average power of issue unit per cycle_cc1
total_power_cycle_cc1  4662355274.4362 # total power per cycle_cc1
avg_total_power_cycle_cc1      56.6511 # average total power per cycle_cc1
avg_total_power_insn_cc1      46.4552 # average total power per insn_cc1
rename_power_cc2       20516056.5848 # total power usage of rename unit_cc2
bpred_power_cc2        7187551.8751 # total power usage of bpred unit_cc2
window_power_cc2       419299336.0747 # total power usage of instruction window_cc2
lsq_power_cc2          64976552.7824 # total power usage of lsq_cc2
regfile_power_cc2      72226839.9511 # total power usage of arch. regfile_cc2
icache_power_cc2       40175516.0792 # total power usage of icache_cc2
dcache_power_cc2       143566648.3525 # total power usage of dcache_cc2
dcache2_power_cc2      7771991.0134 # total power usage of dcache2_cc2
alu_power_cc2          182320892.8117 # total power usage of alu_cc2
resultbus_power_cc2    247814924.8909 # total power usage of resultbus_cc2
clock_power_cc2        445122351.7581 # total power usage of clock_cc2
avg_rename_power_cc2         0.2493 # avg power usage of rename unit_cc2
avg_bpred_power_cc2          0.0873 # avg power usage of bpred unit_cc2
avg_window_power_cc2         5.0948 # avg power usage of instruction window_cc2
avg_lsq_power_cc2            0.7895 # avg power usage of instruction lsq_cc2
avg_regfile_power_cc2        0.8776 # avg power usage of arch. regfile_cc2
avg_icache_power_cc2         0.4882 # avg power usage of icache_cc2
avg_dcache_power_cc2         1.7444 # avg power usage of dcache_cc2
avg_dcache2_power_cc2        0.0944 # avg power usage of dcache2_cc2
avg_alu_power_cc2            2.2153 # avg power usage of alu_cc2
avg_resultbus_power_cc2       3.0111 # avg power usage of resultbus_cc2
avg_clock_power_cc2          5.4086 # avg power usage of clock_cc2
fetch_stage_power_cc2  47363067.9543 # total power usage of fetch stage_cc2
dispatch_stage_power_cc2 20516056.5848 # total power usage of dispatch stage_cc2
issue_stage_power_cc2  1065750345.9257 # total power usage of issue stage_cc2
avg_fetch_power_cc2          0.5755 # average power of fetch unit per cycle_cc2
avg_dispatch_power_cc2       0.2493 # average power of dispatch unit per cycle_cc2
avg_issue_power_cc2         12.9497 # average power of issue unit per cycle_cc2
total_power_cycle_cc2  1650978662.1741 # total power per cycle_cc2
avg_total_power_cycle_cc2      20.0606 # average total power per cycle_cc2
avg_total_power_insn_cc2      16.4502 # average total power per insn_cc2
rename_power_cc3       43603946.1661 # total power usage of rename unit_cc3
bpred_power_cc3        31550430.7271 # total power usage of bpred unit_cc3
window_power_cc3       641456101.1133 # total power usage of instruction window_cc3
lsq_power_cc3          127914874.2565 # total power usage of lsq_cc3
regfile_power_cc3      249543345.8188 # total power usage of arch. regfile_cc3
icache_power_cc3       61116633.1733 # total power usage of icache_cc3
dcache_power_cc3       221056800.5613 # total power usage of dcache_cc3
dcache2_power_cc3      31499588.5956 # total power usage of dcache2_cc3
alu_power_cc3          398397486.4398 # total power usage of alu_cc3
resultbus_power_cc3    415321583.9573 # total power usage of resultbus_cc3
clock_power_cc3        818058626.4014 # total power usage of clock_cc3
avg_rename_power_cc3         0.5298 # avg power usage of rename unit_cc3
avg_bpred_power_cc3          0.3834 # avg power usage of bpred unit_cc3
avg_window_power_cc3         7.7942 # avg power usage of instruction window_cc3
avg_lsq_power_cc3            1.5543 # avg power usage of instruction lsq_cc3
avg_regfile_power_cc3        3.0321 # avg power usage of arch. regfile_cc3
avg_icache_power_cc3         0.7426 # avg power usage of icache_cc3
avg_dcache_power_cc3         2.6860 # avg power usage of dcache_cc3
avg_dcache2_power_cc3        0.3827 # avg power usage of dcache2_cc3
avg_alu_power_cc3            4.8408 # avg power usage of alu_cc3
avg_resultbus_power_cc3       5.0465 # avg power usage of resultbus_cc3
avg_clock_power_cc3          9.9400 # avg power usage of clock_cc3
fetch_stage_power_cc3  92667063.9005 # total power usage of fetch stage_cc3
dispatch_stage_power_cc3 43603946.1661 # total power usage of dispatch stage_cc3
issue_stage_power_cc3  1835646434.9238 # total power usage of issue stage_cc3
avg_fetch_power_cc3          1.1260 # average power of fetch unit per cycle_cc3
avg_dispatch_power_cc3       0.5298 # average power of dispatch unit per cycle_cc3
avg_issue_power_cc3         22.3045 # average power of issue unit per cycle_cc3
total_power_cycle_cc3  3039519417.2105 # total power per cycle_cc3
avg_total_power_cycle_cc3      36.9324 # average total power per cycle_cc3
avg_total_power_insn_cc3      30.2855 # average total power per insn_cc3
total_rename_access       100362322 # total number accesses of rename unit
total_bpred_access          4613097 # total number accesses of bpred unit
total_window_access       408031149 # total number accesses of instruction window
total_lsq_access           44624742 # total number accesses of load/store queue
total_regfile_access      159584440 # total number accesses of arch. regfile
total_icache_access       100704719 # total number accesses of icache
total_dcache_access        44593546 # total number accesses of dcache
total_dcache2_access       10018755 # total number accesses of dcache2
total_alu_access          100021938 # total number accesses of alu
total_resultbus_access    135002523 # total number accesses of resultbus
avg_rename_access            1.2195 # avg number accesses of rename unit
avg_bpred_access             0.0561 # avg number accesses of bpred unit
avg_window_access            4.9579 # avg number accesses of instruction window
avg_lsq_access               0.5422 # avg number accesses of lsq
avg_regfile_access           1.9391 # avg number accesses of arch. regfile
avg_icache_access            1.2236 # avg number accesses of icache
avg_dcache_access            0.5418 # avg number accesses of dcache
avg_dcache2_access           0.1217 # avg number accesses of dcache2
avg_alu_access               1.2153 # avg number accesses of alu
avg_resultbus_access         1.6404 # avg number accesses of resultbus
max_rename_access                16 # max number accesses of rename unit
max_bpred_access                  3 # max number accesses of bpred unit
max_window_access                49 # max number accesses of instruction window
max_lsq_access                    9 # max number accesses of load/store queue
max_regfile_access               34 # max number accesses of arch. regfile
max_icache_access                16 # max number accesses of icache
max_dcache_access                 6 # max number accesses of dcache
max_dcache2_access                8 # max number accesses of dcache2
max_alu_access                   10 # max number accesses of alu
max_resultbus_access             15 # max number accesses of resultbus
max_cycle_power_cc1        177.9845 # maximum cycle power usage of cc1
max_cycle_power_cc2        119.6854 # maximum cycle power usage of cc2
max_cycle_power_cc3        124.5487 # maximum cycle power usage of cc3
sim_invalid_addrs                 0 # total non-speculative bogus addresses seen (debug var)
ld_text_base           0x0120000000 # program text (code) segment base
ld_text_size                1048576 # program text (code) size in bytes
ld_data_base           0x0140000000 # program initialized data segment base
ld_data_size              138670480 # program init'ed `.data' and uninit'ed `.bss' size in bytes
ld_stack_base          0x011ff9b000 # program stack segment base (highest address in stack)
ld_stack_size                 16384 # program initial stack size
ld_prog_entry          0x012002f6c4 # program entry point (initial PC)
ld_environ_base        0x011ff955a0 # program environment base address address
ld_target_big_endian              0 # target executable endian-ness, non-zero if big endian
mem.page_count                 6253 # total number of pages allocated
mem.page_mem                 50024k # total size of memory pages allocated
mem.ptab_misses              205181 # total first level page table misses
mem.ptab_accesses         877897918 # total page table accesses
mem.ptab_miss_rate           0.0002 # first level page table miss rate

