sim-outorder: SimpleScalar/Alpha Tool Set version 3.0 of August, 2003.
Copyright (c) 1994-2003 by Todd M. Austin, Ph.D. and SimpleScalar, LLC.
All Rights Reserved. This version of SimpleScalar is licensed for academic
non-commercial use.  No portion of this work may be used by any commercial
entity, or for any commercial purpose, without the prior written permission
of SimpleScalar, LLC (info@simplescalar.com).


Processor Parameters:
Issue Width: 16
Window Size: 64
Number of Virtual Registers: 32
Number of Physical Registers: 64
Datapath Width: 64
Total Power Consumption: 231.501
Branch Predictor Power Consumption: 3.11615  (1.36%)
 branch target buffer power (W): 2.49493
 local predict power (W): 0.354432
 global predict power (W): 0.0996078
 chooser power (W): 0.0702439
 RAS power (W): 0.0969383
Rename Logic Power Consumption: 3.27072  (1.43%)
 Instruction Decode Power (W): 0.0639661
 RAT decode_power (W): 0.454058
 RAT wordline_power (W): 0.227603
 RAT bitline_power (W): 2.30694
 DCL Comparators (W): 0.218151
Instruction Window Power Consumption: 43.216  (18.8%)
 tagdrive (W): 2.9395
 tagmatch (W): 0.989695
 Selection Logic (W): 0.225484
 decode_power (W): 0.976583
 wordline_power (W): 1.0557
 bitline_power (W): 37.0291
Load/Store Queue Power Consumption: 9.33077  (4.07%)
 tagdrive (W): 4.52311
 tagmatch (W): 1.71883
 decode_power (W): 0.162764
 wordline_power (W): 0.0433172
 bitline_power (W): 2.88275
Arch. Register File Power Consumption: 25.1387  (11%)
 decode_power (W): 0.454058
 wordline_power (W): 1.0557
 bitline_power (W): 23.629
Result Bus Power Consumption: 31.3281  (13.7%)
Total Clock Power: 61.8648  (27%)
Int ALU Power: 4.66013  (2.03%)
FP ALU Power: 28.5621  (12.4%)
Instruction Cache Power Consumption: 2.76773  (1.21%)
 decode_power (W): 0.151353
 wordline_power (W): 0.180479
 bitline_power (W): 1.42251
 senseamp_power (W): 0.768
 tagarray_power (W): 0.245382
Itlb_power (W): 0.264936 (0.115%)
Data Cache Power Consumption: 11.0709  (4.82%)
 decode_power (W): 0.60541
 wordline_power (W): 0.721917
 bitline_power (W): 5.69006
 senseamp_power (W): 3.072
 tagarray_power (W): 0.981529
Dtlb_power (W): 1.80688 (0.787%)
Level 2 Cache Power Consumption: 3.10298 (1.35%)
 decode_power (W): 0.19487
 wordline_power (W): 0.0430878
 bitline_power (W): 1.77274
 senseamp_power (W): 0.192
 tagarray_power (W): 0.900275
sim: loading EIO file: ../benchmarks/186.crafty.spec_ref.eio.gz
sim: command line: ./sim-outorder -config ../configs/current.config ../benchmarks/186.crafty.spec_ref.eio.gz 

sim: simulation started @ Tue Nov 24 13:08:18 2015, options follow:

sim-outorder: This simulator implements a very detailed out-of-order issue
superscalar processor with a two-level memory system and speculative
execution support.  This simulator is a performance simulator, tracking the
latency of all pipeline operations.

# -config                     # load configuration from a file
# -dumpconfig                 # dump configuration to a file
# -h                    false # print help message    
# -v                    false # verbose operation     
# -d                    false # enable debug message  
# -i                    false # start in Dlite debugger
-seed                       1 # random number generator seed (0 for timer seed)
# -q                    false # initialize and terminate immediately
# -chkpt               <null> # restore EIO trace execution from <fname>
# -redir:sim     ../results/28_23_bp/186.crafty.spec_ref.eio.gz.out # redirect simulator output to file (non-interactive only)
# -redir:prog       /dev/null # redirect simulated program output to file
-nice                       0 # simulator scheduling priority
-freq            600000000.0000 # frequency             
-max:inst           100000000 # maximum number of inst's to execute
-fastfwd                    0 # number of insts skipped before timing starts
# -ptrace              <null> # generate pipetrace, i.e., <fname|stdout|stderr> <range>
-fetch:ifqsize             16 # instruction fetch queue size (in insts)
-fetch:mplat               15 # extra branch mis-prediction latency
-fetch:speed                1 # speed of front-end of machine relative to execution core
-bpred                   2lev # branch predictor type {nottaken|taken|perfect|bimod|2lev|comb}
-bpred:bimod     2048 # bimodal predictor config (<table size>)
-bpred:2lev      1 8192 8 0 # 2-level predictor config (<l1size> <l2size> <hist_size> <xor>)
-bpred:comb      1024 # combining predictor config (<meta_table_size>)
-bpred:ras                  8 # return address stack size (0 for no return stack)
-bpred:btb       512 4 # BTB config (<num_sets> <associativity>)
# -bpred:spec_update       <null> # speculative predictors update in {ID|WB} (default non-spec)
-decode:width              16 # instruction decode B/W (insts/cycle)
-issue:width               16 # instruction issue B/W (insts/cycle)
-issue:inorder          false # run pipeline with in-order issue
-issue:wrongpath         true # issue instructions down wrong execution paths
-commit:width              16 # instruction commit B/W (insts/cycle)
-ruu:size                  64 # register update unit (RUU) size
-lsq:size                  64 # load/store queue (LSQ) size
-cache:dl1       dl1:32:64:8:f # l1 data cache config, i.e., {<config>|none}
-cache:dl1lat               1 # l1 data cache hit latency (in cycles)
-cache:dl2       dl2:256:64:8:f # l2 data cache config, i.e., {<config>|none}
-cache:dl2lat               2 # l2 data cache hit latency (in cycles)
-cache:il1       il1:32:64:8:f # l1 inst cache config, i.e., {<config>|dl1|dl2|none}
-cache:il1lat               1 # l1 instruction cache hit latency (in cycles)
-cache:il2                dl2 # l2 instruction cache config, i.e., {<config>|dl2|none}
-cache:il2lat               2 # l2 instruction cache hit latency (in cycles)
-cache:flush            false # flush caches on system calls
-cache:icompress        false # convert 64-bit inst addresses to 32-bit inst equivalents
-mem:lat         103 1 # memory access latency (<first_chunk> <inter_chunk>)
-mem:width                  8 # memory access bus width (in bytes)
-tlb:itlb        itlb:16:4096:4:l # instruction TLB config, i.e., {<config>|none}
-tlb:dtlb        dtlb:32:4096:4:l # data TLB config, i.e., {<config>|none}
-tlb:lat                   30 # inst/data TLB miss latency (in cycles)
-res:ialu                   4 # total number of integer ALU's available
-res:imult                  2 # total number of integer multiplier/dividers available
-res:memport                4 # total number of memory system ports available (to CPU)
-res:fpalu                  8 # total number of floating point ALU's available
-res:fpmult                 2 # total number of floating point multiplier/dividers available
# -pcstat              <null> # profile stat(s) against text addr's (mult uses ok)
-bugcompat              false # operate in backward-compatible bugs mode (for testing only)

  Pipetrace range arguments are formatted as follows:

    {{@|#}<start>}:{{@|#|+}<end>}

  Both ends of the range are optional, if neither are specified, the entire
  execution is traced.  Ranges that start with a `@' designate an address
  range to be traced, those that start with an `#' designate a cycle count
  range.  All other range values represent an instruction count range.  The
  second argument, if specified with a `+', indicates a value relative
  to the first argument, e.g., 1000:+100 == 1000:1100.  Program symbols may
  be used in all contexts.

    Examples:   -ptrace FOO.trc #0:#1000
                -ptrace BAR.trc @2000:
                -ptrace BLAH.trc :1500
                -ptrace UXXE.trc :
                -ptrace FOOBAR.trc @main:+278

  Branch predictor configuration examples for 2-level predictor:
    Configurations:   N, M, W, X
      N   # entries in first level (# of shift register(s))
      W   width of shift register(s)
      M   # entries in 2nd level (# of counters, or other FSM)
      X   (yes-1/no-0) xor history and address for 2nd level index
    Sample predictors:
      GAg     : 1, W, 2^W, 0
      GAp     : 1, W, M (M > 2^W), 0
      PAg     : N, W, 2^W, 0
      PAp     : N, W, M (M == 2^(N+W)), 0
      gshare  : 1, W, 2^W, 1
  Predictor `comb' combines a bimodal and a 2-level predictor.

  The cache config parameter <config> has the following format:

    <name>:<nsets>:<bsize>:<assoc>:<repl>

    <name>   - name of the cache being defined
    <nsets>  - number of sets in the cache
    <bsize>  - block size of the cache
    <assoc>  - associativity of the cache
    <repl>   - block replacement strategy, 'l'-LRU, 'f'-FIFO, 'r'-random

    Examples:   -cache:dl1 dl1:4096:32:1:l
                -dtlb dtlb:128:4096:32:r

  Cache levels can be unified by pointing a level of the instruction cache
  hierarchy at the data cache hiearchy using the "dl1" and "dl2" cache
  configuration arguments.  Most sensible combinations are supported, e.g.,

    A unified l2 cache (il2 is pointed at dl2):
      -cache:il1 il1:128:64:1:l -cache:il2 dl2
      -cache:dl1 dl1:256:32:1:l -cache:dl2 ul2:1024:64:2:l

    Or, a fully unified cache hierarchy (il1 pointed at dl1):
      -cache:il1 dl1
      -cache:dl1 ul1:256:32:1:l -cache:dl2 ul2:1024:64:2:l



sim: ** starting performance simulation **

sim: ** simulation statistics **
sim_num_insn              100000009 # total number of instructions committed
sim_num_refs               36952288 # total number of loads and stores committed
sim_num_loads              31584001 # total number of loads committed
sim_num_stores         5368287.0000 # total number of stores committed
sim_num_branches           11073364 # total number of branches committed
sim_elapsed_time                191 # total simulation time in seconds
sim_inst_rate           523560.2565 # simulation speed (in insts/sec)
sim_total_insn            140010779 # total number of instructions executed
sim_total_refs             51852332 # total number of loads and stores executed
sim_total_loads            44801146 # total number of loads executed
sim_total_stores       7051186.0000 # total number of stores executed
sim_total_branches         16708701 # total number of branches executed
sim_cycle                  65167105 # total simulation time in cycles
sim_IPC                      1.5345 # instructions per cycle
sim_CPI                      0.6517 # cycles per instruction
sim_exec_BW                  2.1485 # total instructions (mis-spec + committed) per cycle
sim_IPB                      9.0307 # instruction per branch
IFQ_count                 486715579 # cumulative IFQ occupancy
IFQ_fcount                 23979144 # cumulative IFQ full count
ifq_occupancy                7.4687 # avg IFQ occupancy (insn's)
ifq_rate                     2.1485 # avg IFQ dispatch rate (insn/cycle)
ifq_latency                  3.4763 # avg IFQ occupant latency (cycle's)
ifq_full                     0.3680 # fraction of time (cycle's) IFQ was full
RUU_count                2245490788 # cumulative RUU occupancy
RUU_fcount                 26177747 # cumulative RUU full count
ruu_occupancy               34.4574 # avg RUU occupancy (insn's)
ruu_rate                     2.1485 # avg RUU dispatch rate (insn/cycle)
ruu_latency                 16.0380 # avg RUU occupant latency (cycle's)
ruu_full                     0.4017 # fraction of time (cycle's) RUU was full
LSQ_count                 791397871 # cumulative LSQ occupancy
LSQ_fcount                        0 # cumulative LSQ full count
lsq_occupancy               12.1441 # avg LSQ occupancy (insn's)
lsq_rate                     2.1485 # avg LSQ dispatch rate (insn/cycle)
lsq_latency                  5.6524 # avg LSQ occupant latency (cycle's)
lsq_full                     0.0000 # fraction of time (cycle's) LSQ was full
sim_slip                 2673139834 # total number of slip cycles
avg_sim_slip                26.7314 # the average slip between issue and retirement
bpred_2lev.lookups         18064174 # total number of bpred lookups
bpred_2lev.updates         11073361 # total number of updates
bpred_2lev.addr_hits        9764323 # total number of address-predicted hits
bpred_2lev.dir_hits        10040899 # total number of direction-predicted hits (includes addr-hits)
bpred_2lev.misses           1032462 # total number of misses
bpred_2lev.jr_hits           953107 # total number of address-predicted hits for JR's
bpred_2lev.jr_seen          1228182 # total number of JR's seen
bpred_2lev.jr_non_ras_hits.PP        98281 # total number of address-predicted hits for non-RAS JR's
bpred_2lev.jr_non_ras_seen.PP       202725 # total number of non-RAS JR's seen
bpred_2lev.bpred_addr_rate    0.8818 # branch address-prediction rate (i.e., addr-hits/updates)
bpred_2lev.bpred_dir_rate    0.9068 # branch direction-prediction rate (i.e., all-hits/updates)
bpred_2lev.bpred_jr_rate    0.7760 # JR address-prediction rate (i.e., JR addr-hits/JRs seen)
bpred_2lev.bpred_jr_non_ras_rate.PP    0.4848 # non-RAS JR addr-pred rate (ie, non-RAS JR hits/JRs seen)
bpred_2lev.retstack_pushes      1760976 # total number of address pushed onto ret-addr stack
bpred_2lev.retstack_pops      1766097 # total number of address popped off of ret-addr stack
bpred_2lev.used_ras.PP      1025457 # total number of RAS predictions used
bpred_2lev.ras_hits.PP       854826 # total number of RAS hits
bpred_2lev.ras_rate.PP    0.8336 # RAS prediction rate (i.e., RAS hits/used RAS)
il1.accesses              152319003 # total number of accesses
il1.hits                  150210370 # total number of hits
il1.misses                  2108633 # total number of misses
il1.replacements            2108377 # total number of replacements
il1.writebacks                    0 # total number of writebacks
il1.invalidations                 0 # total number of invalidations
il1.miss_rate                0.0138 # miss rate (i.e., misses/ref)
il1.repl_rate                0.0138 # replacement rate (i.e., repls/ref)
il1.wb_rate                  0.0000 # writeback rate (i.e., wrbks/ref)
il1.inv_rate                 0.0000 # invalidation rate (i.e., invs/ref)
dl1.accesses               40194013 # total number of accesses
dl1.hits                   38321782 # total number of hits
dl1.misses                  1872231 # total number of misses
dl1.replacements            1871975 # total number of replacements
dl1.writebacks               209495 # total number of writebacks
dl1.invalidations                 0 # total number of invalidations
dl1.miss_rate                0.0466 # miss rate (i.e., misses/ref)
dl1.repl_rate                0.0466 # replacement rate (i.e., repls/ref)
dl1.wb_rate                  0.0052 # writeback rate (i.e., wrbks/ref)
dl1.inv_rate                 0.0000 # invalidation rate (i.e., invs/ref)
dl2.accesses                4190359 # total number of accesses
dl2.hits                    4003520 # total number of hits
dl2.misses                   186839 # total number of misses
dl2.replacements             184791 # total number of replacements
dl2.writebacks                13520 # total number of writebacks
dl2.invalidations                 0 # total number of invalidations
dl2.miss_rate                0.0446 # miss rate (i.e., misses/ref)
dl2.repl_rate                0.0441 # replacement rate (i.e., repls/ref)
dl2.wb_rate                  0.0032 # writeback rate (i.e., wrbks/ref)
dl2.inv_rate                 0.0000 # invalidation rate (i.e., invs/ref)
itlb.accesses             152319003 # total number of accesses
itlb.hits                 152318972 # total number of hits
itlb.misses                      31 # total number of misses
itlb.replacements                 0 # total number of replacements
itlb.writebacks                   0 # total number of writebacks
itlb.invalidations                0 # total number of invalidations
itlb.miss_rate               0.0000 # miss rate (i.e., misses/ref)
itlb.repl_rate               0.0000 # replacement rate (i.e., repls/ref)
itlb.wb_rate                 0.0000 # writeback rate (i.e., wrbks/ref)
itlb.inv_rate                0.0000 # invalidation rate (i.e., invs/ref)
dtlb.accesses              40456084 # total number of accesses
dtlb.hits                  40094363 # total number of hits
dtlb.misses                  361721 # total number of misses
dtlb.replacements            361593 # total number of replacements
dtlb.writebacks                   0 # total number of writebacks
dtlb.invalidations                0 # total number of invalidations
dtlb.miss_rate               0.0089 # miss rate (i.e., misses/ref)
dtlb.repl_rate               0.0089 # replacement rate (i.e., repls/ref)
dtlb.wb_rate                 0.0000 # writeback rate (i.e., wrbks/ref)
dtlb.inv_rate                0.0000 # invalidation rate (i.e., invs/ref)
rename_power           213143257.0311 # total power usage of rename unit
bpred_power            203070495.6827 # total power usage of bpred unit
window_power           2816263540.9016 # total power usage of instruction window
lsq_power              608059404.6352 # total power usage of load/store queue
regfile_power          1638219084.1372 # total power usage of arch. regfile
icache_power           197629945.6532 # total power usage of icache
dcache_power           839208692.8976 # total power usage of dcache
dcache2_power          202212012.9695 # total power usage of dcache2
alu_power              2164995923.5488 # total power usage of alu
falu_power             1861308712.5599 # total power usage of falu
resultbus_power        2041562635.4510 # total power usage of resultbus
clock_power            4031549573.6339 # total power usage of clock
avg_rename_power             3.2707 # avg power usage of rename unit
avg_bpred_power              3.1162 # avg power usage of bpred unit
avg_window_power            43.2160 # avg power usage of instruction window
avg_lsq_power                9.3308 # avg power usage of lsq
avg_regfile_power           25.1387 # avg power usage of arch. regfile
avg_icache_power             3.0327 # avg power usage of icache
avg_dcache_power            12.8778 # avg power usage of dcache
avg_dcache2_power            3.1030 # avg power usage of dcache2
avg_alu_power               33.2222 # avg power usage of alu
avg_falu_power              28.5621 # avg power usage of falu
avg_resultbus_power         31.3281 # avg power usage of resultbus
avg_clock_power             61.8648 # avg power usage of clock
fetch_stage_power      400700441.3359 # total power usage of fetch stage
dispatch_stage_power   213143257.0311 # total power usage of dispatch stage
issue_stage_power      8672302210.4037 # total power usage of issue stage
avg_fetch_power              6.1488 # average power of fetch unit per cycle
avg_dispatch_power           3.2707 # average power of dispatch unit per cycle
avg_issue_power            133.0779 # average power of issue unit per cycle
total_power            14955914566.5418 # total power per cycle
avg_total_power_cycle      229.5010 # average total power per cycle
avg_total_power_cycle_nofp_nod2     197.8359 # average total power per cycle
avg_total_power_insn       106.8197 # average total power per insn
avg_total_power_insn_nofp_nod2      92.0814 # average total power per insn
rename_power_cc1       76149306.8845 # total power usage of rename unit_cc1
bpred_power_cc1        25123170.5493 # total power usage of bpred unit_cc1
window_power_cc1       1331381762.7453 # total power usage of instruction window_cc1
lsq_power_cc1          129565433.9502 # total power usage of lsq_cc1
regfile_power_cc1      647631995.5209 # total power usage of arch. regfile_cc1
icache_power_cc1       77100252.7307 # total power usage of icache_cc1
dcache_power_cc1       265446524.6288 # total power usage of dcache_cc1
dcache2_power_cc1      11591161.1997 # total power usage of dcache2_cc1
alu_power_cc1          146208315.2963 # total power usage of alu_cc1
resultbus_power_cc1    931528748.5118 # total power usage of resultbus_cc1
clock_power_cc1        1324263176.6245 # total power usage of clock_cc1
avg_rename_power_cc1         1.1685 # avg power usage of rename unit_cc1
avg_bpred_power_cc1          0.3855 # avg power usage of bpred unit_cc1
avg_window_power_cc1        20.4303 # avg power usage of instruction window_cc1
avg_lsq_power_cc1            1.9882 # avg power usage of lsq_cc1
avg_regfile_power_cc1        9.9380 # avg power usage of arch. regfile_cc1
avg_icache_power_cc1         1.1831 # avg power usage of icache_cc1
avg_dcache_power_cc1         4.0733 # avg power usage of dcache_cc1
avg_dcache2_power_cc1        0.1779 # avg power usage of dcache2_cc1
avg_alu_power_cc1            2.2436 # avg power usage of alu_cc1
avg_resultbus_power_cc1      14.2945 # avg power usage of resultbus_cc1
avg_clock_power_cc1         20.3210 # avg power usage of clock_cc1
fetch_stage_power_cc1  102223423.2800 # total power usage of fetch stage_cc1
dispatch_stage_power_cc1 76149306.8845 # total power usage of dispatch stage_cc1
issue_stage_power_cc1  2815721946.3321 # total power usage of issue stage_cc1
avg_fetch_power_cc1          1.5686 # average power of fetch unit per cycle_cc1
avg_dispatch_power_cc1       1.1685 # average power of dispatch unit per cycle_cc1
avg_issue_power_cc1         43.2077 # average power of issue unit per cycle_cc1
total_power_cycle_cc1  4965989848.6420 # total power per cycle_cc1
avg_total_power_cycle_cc1      76.2039 # average total power per cycle_cc1
avg_total_power_insn_cc1      35.4686 # average total power per insn_cc1
rename_power_cc2       28620990.4988 # total power usage of rename unit_cc2
bpred_power_cc2        17253128.7785 # total power usage of bpred unit_cc2
window_power_cc2       461782652.1506 # total power usage of instruction window_cc2
lsq_power_cc2          58472407.3089 # total power usage of lsq_cc2
regfile_power_cc2      66168927.0061 # total power usage of arch. regfile_cc2
icache_power_cc2       77100252.7307 # total power usage of icache_cc2
dcache_power_cc2       129402576.1002 # total power usage of dcache_cc2
dcache2_power_cc2      3250646.6612 # total power usage of dcache2_cc2
alu_power_cc2          129292853.5671 # total power usage of alu_cc2
resultbus_power_cc2    242739902.2326 # total power usage of resultbus_cc2
clock_power_cc2        437988183.9166 # total power usage of clock_cc2
avg_rename_power_cc2         0.4392 # avg power usage of rename unit_cc2
avg_bpred_power_cc2          0.2648 # avg power usage of bpred unit_cc2
avg_window_power_cc2         7.0861 # avg power usage of instruction window_cc2
avg_lsq_power_cc2            0.8973 # avg power usage of instruction lsq_cc2
avg_regfile_power_cc2        1.0154 # avg power usage of arch. regfile_cc2
avg_icache_power_cc2         1.1831 # avg power usage of icache_cc2
avg_dcache_power_cc2         1.9857 # avg power usage of dcache_cc2
avg_dcache2_power_cc2        0.0499 # avg power usage of dcache2_cc2
avg_alu_power_cc2            1.9840 # avg power usage of alu_cc2
avg_resultbus_power_cc2       3.7249 # avg power usage of resultbus_cc2
avg_clock_power_cc2          6.7210 # avg power usage of clock_cc2
fetch_stage_power_cc2  94353381.5092 # total power usage of fetch stage_cc2
dispatch_stage_power_cc2 28620990.4988 # total power usage of dispatch stage_cc2
issue_stage_power_cc2  1024941038.0206 # total power usage of issue stage_cc2
avg_fetch_power_cc2          1.4479 # average power of fetch unit per cycle_cc2
avg_dispatch_power_cc2       0.4392 # average power of dispatch unit per cycle_cc2
avg_issue_power_cc2         15.7279 # average power of issue unit per cycle_cc2
total_power_cycle_cc2  1652072520.9513 # total power per cycle_cc2
avg_total_power_cycle_cc2      25.3513 # average total power per cycle_cc2
avg_total_power_insn_cc2      11.7996 # average total power per insn_cc2
rename_power_cc3       42320385.5726 # total power usage of rename unit_cc3
bpred_power_cc3        35227359.1010 # total power usage of bpred unit_cc3
window_power_cc3       594818218.3520 # total power usage of instruction window_cc3
lsq_power_cc3          106118847.2378 # total power usage of lsq_cc3
regfile_power_cc3      157264626.2063 # total power usage of arch. regfile_cc3
icache_power_cc3       89153222.1039 # total power usage of icache_cc3
dcache_power_cc3       186965174.7073 # total power usage of dcache_cc3
dcache2_power_cc3      22312780.9329 # total power usage of dcache2_cc3
alu_power_cc3          331171613.8739 # total power usage of alu_cc3
resultbus_power_cc3    347533098.9863 # total power usage of resultbus_cc3
clock_power_cc3        697979118.4418 # total power usage of clock_cc3
avg_rename_power_cc3         0.6494 # avg power usage of rename unit_cc3
avg_bpred_power_cc3          0.5406 # avg power usage of bpred unit_cc3
avg_window_power_cc3         9.1276 # avg power usage of instruction window_cc3
avg_lsq_power_cc3            1.6284 # avg power usage of instruction lsq_cc3
avg_regfile_power_cc3        2.4133 # avg power usage of arch. regfile_cc3
avg_icache_power_cc3         1.3681 # avg power usage of icache_cc3
avg_dcache_power_cc3         2.8690 # avg power usage of dcache_cc3
avg_dcache2_power_cc3        0.3424 # avg power usage of dcache2_cc3
avg_alu_power_cc3            5.0819 # avg power usage of alu_cc3
avg_resultbus_power_cc3       5.3330 # avg power usage of resultbus_cc3
avg_clock_power_cc3         10.7106 # avg power usage of clock_cc3
fetch_stage_power_cc3  124380581.2049 # total power usage of fetch stage_cc3
dispatch_stage_power_cc3 42320385.5726 # total power usage of dispatch stage_cc3
issue_stage_power_cc3  1588919734.0903 # total power usage of issue stage_cc3
avg_fetch_power_cc3          1.9086 # average power of fetch unit per cycle_cc3
avg_dispatch_power_cc3       0.6494 # average power of dispatch unit per cycle_cc3
avg_issue_power_cc3         24.3822 # average power of issue unit per cycle_cc3
total_power_cycle_cc3  2610864445.5158 # total power per cycle_cc3
avg_total_power_cycle_cc3      40.0641 # average total power per cycle_cc3
avg_total_power_insn_cc3      18.6476 # average total power per insn_cc3
total_rename_access       140010779 # total number accesses of rename unit
total_bpred_access         11073361 # total number accesses of bpred unit
total_window_access       446374208 # total number accesses of instruction window
total_lsq_access           40990202 # total number accesses of load/store queue
total_regfile_access      142679029 # total number accesses of arch. regfile
total_icache_access       153082288 # total number accesses of icache
total_dcache_access        40194013 # total number accesses of dcache
total_dcache2_access        4190359 # total number accesses of dcache2
total_alu_access          110905615 # total number accesses of alu
total_resultbus_access    132237795 # total number accesses of resultbus
avg_rename_access            2.1485 # avg number accesses of rename unit
avg_bpred_access             0.1699 # avg number accesses of bpred unit
avg_window_access            6.8497 # avg number accesses of instruction window
avg_lsq_access               0.6290 # avg number accesses of lsq
avg_regfile_access           2.1894 # avg number accesses of arch. regfile
avg_icache_access            2.3491 # avg number accesses of icache
avg_dcache_access            0.6168 # avg number accesses of dcache
avg_dcache2_access           0.0643 # avg number accesses of dcache2
avg_alu_access               1.7019 # avg number accesses of alu
avg_resultbus_access         2.0292 # avg number accesses of resultbus
max_rename_access                16 # max number accesses of rename unit
max_bpred_access                  7 # max number accesses of bpred unit
max_window_access                46 # max number accesses of instruction window
max_lsq_access                   13 # max number accesses of load/store queue
max_regfile_access               37 # max number accesses of arch. regfile
max_icache_access                16 # max number accesses of icache
max_dcache_access                 8 # max number accesses of dcache
max_dcache2_access                7 # max number accesses of dcache2
max_alu_access                    6 # max number accesses of alu
max_resultbus_access             17 # max number accesses of resultbus
max_cycle_power_cc1        179.2792 # maximum cycle power usage of cc1
max_cycle_power_cc2        107.1463 # maximum cycle power usage of cc2
max_cycle_power_cc3        114.3501 # maximum cycle power usage of cc3
sim_invalid_addrs                 0 # total non-speculative bogus addresses seen (debug var)
ld_text_base           0x0120000000 # program text (code) segment base
ld_text_size                 442368 # program text (code) size in bytes
ld_data_base           0x0140000000 # program initialized data segment base
ld_data_size                1163616 # program init'ed `.data' and uninit'ed `.bss' size in bytes
ld_stack_base          0x011ff9b000 # program stack segment base (highest address in stack)
ld_stack_size                 16384 # program initial stack size
ld_prog_entry          0x0120013300 # program entry point (initial PC)
ld_environ_base        0x011ff96170 # program environment base address address
ld_target_big_endian              0 # target executable endian-ness, non-zero if big endian
mem.page_count                  306 # total number of pages allocated
mem.page_mem                  2448k # total size of memory pages allocated
mem.ptab_misses              633184 # total first level page table misses
mem.ptab_accesses         827691492 # total page table accesses
mem.ptab_miss_rate           0.0008 # first level page table miss rate

