sim-outorder: SimpleScalar/Alpha Tool Set version 3.0 of August, 2003.
Copyright (c) 1994-2003 by Todd M. Austin, Ph.D. and SimpleScalar, LLC.
All Rights Reserved. This version of SimpleScalar is licensed for academic
non-commercial use.  No portion of this work may be used by any commercial
entity, or for any commercial purpose, without the prior written permission
of SimpleScalar, LLC (info@simplescalar.com).


Processor Parameters:
Issue Width: 16
Window Size: 64
Number of Virtual Registers: 32
Number of Physical Registers: 64
Datapath Width: 64
Total Power Consumption: 231.501
Branch Predictor Power Consumption: 3.11615  (1.36%)
 branch target buffer power (W): 2.49493
 local predict power (W): 0.354432
 global predict power (W): 0.0996078
 chooser power (W): 0.0702439
 RAS power (W): 0.0969383
Rename Logic Power Consumption: 3.27072  (1.43%)
 Instruction Decode Power (W): 0.0639661
 RAT decode_power (W): 0.454058
 RAT wordline_power (W): 0.227603
 RAT bitline_power (W): 2.30694
 DCL Comparators (W): 0.218151
Instruction Window Power Consumption: 43.216  (18.8%)
 tagdrive (W): 2.9395
 tagmatch (W): 0.989695
 Selection Logic (W): 0.225484
 decode_power (W): 0.976583
 wordline_power (W): 1.0557
 bitline_power (W): 37.0291
Load/Store Queue Power Consumption: 9.33077  (4.07%)
 tagdrive (W): 4.52311
 tagmatch (W): 1.71883
 decode_power (W): 0.162764
 wordline_power (W): 0.0433172
 bitline_power (W): 2.88275
Arch. Register File Power Consumption: 25.1387  (11%)
 decode_power (W): 0.454058
 wordline_power (W): 1.0557
 bitline_power (W): 23.629
Result Bus Power Consumption: 31.3281  (13.7%)
Total Clock Power: 61.8648  (27%)
Int ALU Power: 4.66013  (2.03%)
FP ALU Power: 28.5621  (12.4%)
Instruction Cache Power Consumption: 2.76773  (1.21%)
 decode_power (W): 0.151353
 wordline_power (W): 0.180479
 bitline_power (W): 1.42251
 senseamp_power (W): 0.768
 tagarray_power (W): 0.245382
Itlb_power (W): 0.264936 (0.115%)
Data Cache Power Consumption: 11.0709  (4.82%)
 decode_power (W): 0.60541
 wordline_power (W): 0.721917
 bitline_power (W): 5.69006
 senseamp_power (W): 3.072
 tagarray_power (W): 0.981529
Dtlb_power (W): 1.80688 (0.787%)
Level 2 Cache Power Consumption: 3.10298 (1.35%)
 decode_power (W): 0.19487
 wordline_power (W): 0.0430878
 bitline_power (W): 1.77274
 senseamp_power (W): 0.192
 tagarray_power (W): 0.900275
sim: loading EIO file: ../benchmarks/191.fma3d.spec_ref.eio.gz
sim: command line: ./sim-outorder -config ../configs/current.config ../benchmarks/191.fma3d.spec_ref.eio.gz 

sim: simulation started @ Tue Nov 24 13:08:24 2015, options follow:

sim-outorder: This simulator implements a very detailed out-of-order issue
superscalar processor with a two-level memory system and speculative
execution support.  This simulator is a performance simulator, tracking the
latency of all pipeline operations.

# -config                     # load configuration from a file
# -dumpconfig                 # dump configuration to a file
# -h                    false # print help message    
# -v                    false # verbose operation     
# -d                    false # enable debug message  
# -i                    false # start in Dlite debugger
-seed                       1 # random number generator seed (0 for timer seed)
# -q                    false # initialize and terminate immediately
# -chkpt               <null> # restore EIO trace execution from <fname>
# -redir:sim     ../results/28_23_bp/191.fma3d.spec_ref.eio.gz.out # redirect simulator output to file (non-interactive only)
# -redir:prog       /dev/null # redirect simulated program output to file
-nice                       0 # simulator scheduling priority
-freq            600000000.0000 # frequency             
-max:inst           100000000 # maximum number of inst's to execute
-fastfwd                    0 # number of insts skipped before timing starts
# -ptrace              <null> # generate pipetrace, i.e., <fname|stdout|stderr> <range>
-fetch:ifqsize             16 # instruction fetch queue size (in insts)
-fetch:mplat               15 # extra branch mis-prediction latency
-fetch:speed                1 # speed of front-end of machine relative to execution core
-bpred                   2lev # branch predictor type {nottaken|taken|perfect|bimod|2lev|comb}
-bpred:bimod     2048 # bimodal predictor config (<table size>)
-bpred:2lev      1 8192 8 0 # 2-level predictor config (<l1size> <l2size> <hist_size> <xor>)
-bpred:comb      1024 # combining predictor config (<meta_table_size>)
-bpred:ras                  8 # return address stack size (0 for no return stack)
-bpred:btb       512 4 # BTB config (<num_sets> <associativity>)
# -bpred:spec_update       <null> # speculative predictors update in {ID|WB} (default non-spec)
-decode:width              16 # instruction decode B/W (insts/cycle)
-issue:width               16 # instruction issue B/W (insts/cycle)
-issue:inorder          false # run pipeline with in-order issue
-issue:wrongpath         true # issue instructions down wrong execution paths
-commit:width              16 # instruction commit B/W (insts/cycle)
-ruu:size                  64 # register update unit (RUU) size
-lsq:size                  64 # load/store queue (LSQ) size
-cache:dl1       dl1:32:64:8:f # l1 data cache config, i.e., {<config>|none}
-cache:dl1lat               1 # l1 data cache hit latency (in cycles)
-cache:dl2       dl2:256:64:8:f # l2 data cache config, i.e., {<config>|none}
-cache:dl2lat               2 # l2 data cache hit latency (in cycles)
-cache:il1       il1:32:64:8:f # l1 inst cache config, i.e., {<config>|dl1|dl2|none}
-cache:il1lat               1 # l1 instruction cache hit latency (in cycles)
-cache:il2                dl2 # l2 instruction cache config, i.e., {<config>|dl2|none}
-cache:il2lat               2 # l2 instruction cache hit latency (in cycles)
-cache:flush            false # flush caches on system calls
-cache:icompress        false # convert 64-bit inst addresses to 32-bit inst equivalents
-mem:lat         103 1 # memory access latency (<first_chunk> <inter_chunk>)
-mem:width                  8 # memory access bus width (in bytes)
-tlb:itlb        itlb:16:4096:4:l # instruction TLB config, i.e., {<config>|none}
-tlb:dtlb        dtlb:32:4096:4:l # data TLB config, i.e., {<config>|none}
-tlb:lat                   30 # inst/data TLB miss latency (in cycles)
-res:ialu                   4 # total number of integer ALU's available
-res:imult                  2 # total number of integer multiplier/dividers available
-res:memport                4 # total number of memory system ports available (to CPU)
-res:fpalu                  8 # total number of floating point ALU's available
-res:fpmult                 2 # total number of floating point multiplier/dividers available
# -pcstat              <null> # profile stat(s) against text addr's (mult uses ok)
-bugcompat              false # operate in backward-compatible bugs mode (for testing only)

  Pipetrace range arguments are formatted as follows:

    {{@|#}<start>}:{{@|#|+}<end>}

  Both ends of the range are optional, if neither are specified, the entire
  execution is traced.  Ranges that start with a `@' designate an address
  range to be traced, those that start with an `#' designate a cycle count
  range.  All other range values represent an instruction count range.  The
  second argument, if specified with a `+', indicates a value relative
  to the first argument, e.g., 1000:+100 == 1000:1100.  Program symbols may
  be used in all contexts.

    Examples:   -ptrace FOO.trc #0:#1000
                -ptrace BAR.trc @2000:
                -ptrace BLAH.trc :1500
                -ptrace UXXE.trc :
                -ptrace FOOBAR.trc @main:+278

  Branch predictor configuration examples for 2-level predictor:
    Configurations:   N, M, W, X
      N   # entries in first level (# of shift register(s))
      W   width of shift register(s)
      M   # entries in 2nd level (# of counters, or other FSM)
      X   (yes-1/no-0) xor history and address for 2nd level index
    Sample predictors:
      GAg     : 1, W, 2^W, 0
      GAp     : 1, W, M (M > 2^W), 0
      PAg     : N, W, 2^W, 0
      PAp     : N, W, M (M == 2^(N+W)), 0
      gshare  : 1, W, 2^W, 1
  Predictor `comb' combines a bimodal and a 2-level predictor.

  The cache config parameter <config> has the following format:

    <name>:<nsets>:<bsize>:<assoc>:<repl>

    <name>   - name of the cache being defined
    <nsets>  - number of sets in the cache
    <bsize>  - block size of the cache
    <assoc>  - associativity of the cache
    <repl>   - block replacement strategy, 'l'-LRU, 'f'-FIFO, 'r'-random

    Examples:   -cache:dl1 dl1:4096:32:1:l
                -dtlb dtlb:128:4096:32:r

  Cache levels can be unified by pointing a level of the instruction cache
  hierarchy at the data cache hiearchy using the "dl1" and "dl2" cache
  configuration arguments.  Most sensible combinations are supported, e.g.,

    A unified l2 cache (il2 is pointed at dl2):
      -cache:il1 il1:128:64:1:l -cache:il2 dl2
      -cache:dl1 dl1:256:32:1:l -cache:dl2 ul2:1024:64:2:l

    Or, a fully unified cache hierarchy (il1 pointed at dl1):
      -cache:il1 dl1
      -cache:dl1 ul1:256:32:1:l -cache:dl2 ul2:1024:64:2:l



sim: ** starting performance simulation **

sim: ** simulation statistics **
sim_num_insn              100000000 # total number of instructions committed
sim_num_refs               45680043 # total number of loads and stores committed
sim_num_loads              29662890 # total number of loads committed
sim_num_stores         16017153.0000 # total number of stores committed
sim_num_branches            2494454 # total number of branches committed
sim_elapsed_time                146 # total simulation time in seconds
sim_inst_rate           684931.5068 # simulation speed (in insts/sec)
sim_total_insn            105904957 # total number of instructions executed
sim_total_refs             48542984 # total number of loads and stores executed
sim_total_loads            31680634 # total number of loads executed
sim_total_stores       16862350.0000 # total number of stores executed
sim_total_branches          2941783 # total number of branches executed
sim_cycle                  49386818 # total simulation time in cycles
sim_IPC                      2.0248 # instructions per cycle
sim_CPI                      0.4939 # cycles per instruction
sim_exec_BW                  2.1444 # total instructions (mis-spec + committed) per cycle
sim_IPB                     40.0889 # instruction per branch
IFQ_count                 634760930 # cumulative IFQ occupancy
IFQ_fcount                 37136400 # cumulative IFQ full count
ifq_occupancy               12.8528 # avg IFQ occupancy (insn's)
ifq_rate                     2.1444 # avg IFQ dispatch rate (insn/cycle)
ifq_latency                  5.9937 # avg IFQ occupant latency (cycle's)
ifq_full                     0.7519 # fraction of time (cycle's) IFQ was full
RUU_count                2750713671 # cumulative RUU occupancy
RUU_fcount                 38551054 # cumulative RUU full count
ruu_occupancy               55.6973 # avg RUU occupancy (insn's)
ruu_rate                     2.1444 # avg RUU dispatch rate (insn/cycle)
ruu_latency                 25.9734 # avg RUU occupant latency (cycle's)
ruu_full                     0.7806 # fraction of time (cycle's) RUU was full
LSQ_count                1207907295 # cumulative LSQ occupancy
LSQ_fcount                        0 # cumulative LSQ full count
lsq_occupancy               24.4581 # avg LSQ occupancy (insn's)
lsq_rate                     2.1444 # avg LSQ dispatch rate (insn/cycle)
lsq_latency                 11.4056 # avg LSQ occupant latency (cycle's)
lsq_full                     0.0000 # fraction of time (cycle's) LSQ was full
sim_slip                 4075800049 # total number of slip cycles
avg_sim_slip                40.7580 # the average slip between issue and retirement
bpred_2lev.lookups          3235017 # total number of bpred lookups
bpred_2lev.updates          2494452 # total number of updates
bpred_2lev.addr_hits        2220595 # total number of address-predicted hits
bpred_2lev.dir_hits         2220622 # total number of direction-predicted hits (includes addr-hits)
bpred_2lev.misses            273830 # total number of misses
bpred_2lev.jr_hits           239019 # total number of address-predicted hits for JR's
bpred_2lev.jr_seen           239020 # total number of JR's seen
bpred_2lev.jr_non_ras_hits.PP            0 # total number of address-predicted hits for non-RAS JR's
bpred_2lev.jr_non_ras_seen.PP            0 # total number of non-RAS JR's seen
bpred_2lev.bpred_addr_rate    0.8902 # branch address-prediction rate (i.e., addr-hits/updates)
bpred_2lev.bpred_dir_rate    0.8902 # branch direction-prediction rate (i.e., all-hits/updates)
bpred_2lev.bpred_jr_rate    1.0000 # JR address-prediction rate (i.e., JR addr-hits/JRs seen)
bpred_2lev.bpred_jr_non_ras_rate.PP <error: divide by zero> # non-RAS JR addr-pred rate (ie, non-RAS JR hits/JRs seen)
bpred_2lev.retstack_pushes       298605 # total number of address pushed onto ret-addr stack
bpred_2lev.retstack_pops       239244 # total number of address popped off of ret-addr stack
bpred_2lev.used_ras.PP       239020 # total number of RAS predictions used
bpred_2lev.ras_hits.PP       239019 # total number of RAS hits
bpred_2lev.ras_rate.PP    1.0000 # RAS prediction rate (i.e., RAS hits/used RAS)
il1.accesses              110515989 # total number of accesses
il1.hits                  108819927 # total number of hits
il1.misses                  1696062 # total number of misses
il1.replacements            1695813 # total number of replacements
il1.writebacks                    0 # total number of writebacks
il1.invalidations                 0 # total number of invalidations
il1.miss_rate                0.0153 # miss rate (i.e., misses/ref)
il1.repl_rate                0.0153 # replacement rate (i.e., repls/ref)
il1.wb_rate                  0.0000 # writeback rate (i.e., wrbks/ref)
il1.inv_rate                 0.0000 # invalidation rate (i.e., invs/ref)
dl1.accesses               43120643 # total number of accesses
dl1.hits                   42592377 # total number of hits
dl1.misses                   528266 # total number of misses
dl1.replacements             528010 # total number of replacements
dl1.writebacks               299114 # total number of writebacks
dl1.invalidations                 0 # total number of invalidations
dl1.miss_rate                0.0123 # miss rate (i.e., misses/ref)
dl1.repl_rate                0.0122 # replacement rate (i.e., repls/ref)
dl1.wb_rate                  0.0069 # writeback rate (i.e., wrbks/ref)
dl1.inv_rate                 0.0000 # invalidation rate (i.e., invs/ref)
dl2.accesses                2523442 # total number of accesses
dl2.hits                    2178168 # total number of hits
dl2.misses                   345274 # total number of misses
dl2.replacements             343226 # total number of replacements
dl2.writebacks               181459 # total number of writebacks
dl2.invalidations                 0 # total number of invalidations
dl2.miss_rate                0.1368 # miss rate (i.e., misses/ref)
dl2.repl_rate                0.1360 # replacement rate (i.e., repls/ref)
dl2.wb_rate                  0.0719 # writeback rate (i.e., wrbks/ref)
dl2.inv_rate                 0.0000 # invalidation rate (i.e., invs/ref)
itlb.accesses             110515989 # total number of accesses
itlb.hits                 110515978 # total number of hits
itlb.misses                      11 # total number of misses
itlb.replacements                 0 # total number of replacements
itlb.writebacks                   0 # total number of writebacks
itlb.invalidations                0 # total number of invalidations
itlb.miss_rate               0.0000 # miss rate (i.e., misses/ref)
itlb.repl_rate               0.0000 # replacement rate (i.e., repls/ref)
itlb.wb_rate                 0.0000 # writeback rate (i.e., wrbks/ref)
itlb.inv_rate                0.0000 # invalidation rate (i.e., invs/ref)
dtlb.accesses              45700246 # total number of accesses
dtlb.hits                  45689703 # total number of hits
dtlb.misses                   10543 # total number of misses
dtlb.replacements             10415 # total number of replacements
dtlb.writebacks                   0 # total number of writebacks
dtlb.invalidations                0 # total number of invalidations
dtlb.miss_rate               0.0002 # miss rate (i.e., misses/ref)
dtlb.repl_rate               0.0002 # replacement rate (i.e., repls/ref)
dtlb.wb_rate                 0.0000 # writeback rate (i.e., wrbks/ref)
dtlb.inv_rate                0.0000 # invalidation rate (i.e., invs/ref)
rename_power           161530380.1694 # total power usage of rename unit
bpred_power            153896749.3047 # total power usage of bpred unit
window_power           2134302190.1185 # total power usage of instruction window
lsq_power              460817143.3907 # total power usage of load/store queue
regfile_power          1241522509.7437 # total power usage of arch. regfile
icache_power           149773634.5213 # total power usage of icache
dcache_power           635993373.3587 # total power usage of dcache
dcache2_power          153246148.9970 # total power usage of dcache2
alu_power              1640739750.5307 # total power usage of alu
falu_power             1410590736.3018 # total power usage of falu
resultbus_power        1547195970.9848 # total power usage of resultbus
clock_power            3055305357.5804 # total power usage of clock
avg_rename_power             3.2707 # avg power usage of rename unit
avg_bpred_power              3.1162 # avg power usage of bpred unit
avg_window_power            43.2160 # avg power usage of instruction window
avg_lsq_power                9.3308 # avg power usage of lsq
avg_regfile_power           25.1387 # avg power usage of arch. regfile
avg_icache_power             3.0327 # avg power usage of icache
avg_dcache_power            12.8778 # avg power usage of dcache
avg_dcache2_power            3.1030 # avg power usage of dcache2
avg_alu_power               33.2222 # avg power usage of alu
avg_falu_power              28.5621 # avg power usage of falu
avg_resultbus_power         31.3281 # avg power usage of resultbus
avg_clock_power             61.8648 # avg power usage of clock
fetch_stage_power      303670383.8260 # total power usage of fetch stage
dispatch_stage_power   161530380.1694 # total power usage of dispatch stage
issue_stage_power      6572294577.3805 # total power usage of issue stage
avg_fetch_power              6.1488 # average power of fetch unit per cycle
avg_dispatch_power           3.2707 # average power of dispatch unit per cycle
avg_issue_power            133.0779 # average power of issue unit per cycle
total_power            11334323208.7000 # total power per cycle
avg_total_power_cycle      229.5010 # average total power per cycle
avg_total_power_cycle_nofp_nod2     197.8359 # average total power per cycle
avg_total_power_insn       107.0235 # average total power per insn
avg_total_power_insn_nofp_nod2      92.2571 # average total power per insn
rename_power_cc1       50628034.1867 # total power usage of rename unit_cc1
bpred_power_cc1        6016061.6446 # total power usage of bpred unit_cc1
window_power_cc1       1029538783.2727 # total power usage of instruction window_cc1
lsq_power_cc1          119950090.0698 # total power usage of lsq_cc1
regfile_power_cc1      388562631.0494 # total power usage of arch. regfile_cc1
icache_power_cc1       48818414.9436 # total power usage of icache_cc1
dcache_power_cc1       234886068.9215 # total power usage of dcache_cc1
dcache2_power_cc1      6743572.9724 # total power usage of dcache2_cc1
alu_power_cc1          530933702.0993 # total power usage of alu_cc1
resultbus_power_cc1    739013628.8227 # total power usage of resultbus_cc1
clock_power_cc1        1180280957.1429 # total power usage of clock_cc1
avg_rename_power_cc1         1.0251 # avg power usage of rename unit_cc1
avg_bpred_power_cc1          0.1218 # avg power usage of bpred unit_cc1
avg_window_power_cc1        20.8464 # avg power usage of instruction window_cc1
avg_lsq_power_cc1            2.4288 # avg power usage of lsq_cc1
avg_regfile_power_cc1        7.8677 # avg power usage of arch. regfile_cc1
avg_icache_power_cc1         0.9885 # avg power usage of icache_cc1
avg_dcache_power_cc1         4.7560 # avg power usage of dcache_cc1
avg_dcache2_power_cc1        0.1365 # avg power usage of dcache2_cc1
avg_alu_power_cc1           10.7505 # avg power usage of alu_cc1
avg_resultbus_power_cc1      14.9638 # avg power usage of resultbus_cc1
avg_clock_power_cc1         23.8987 # avg power usage of clock_cc1
fetch_stage_power_cc1  54834476.5882 # total power usage of fetch stage_cc1
dispatch_stage_power_cc1 50628034.1867 # total power usage of dispatch stage_cc1
issue_stage_power_cc1  2661065846.1584 # total power usage of issue stage_cc1
avg_fetch_power_cc1          1.1103 # average power of fetch unit per cycle_cc1
avg_dispatch_power_cc1       1.0251 # average power of dispatch unit per cycle_cc1
avg_issue_power_cc1         53.8821 # average power of issue unit per cycle_cc1
total_power_cycle_cc1  4335371945.1255 # total power per cycle_cc1
avg_total_power_cycle_cc1      87.7840 # average total power per cycle_cc1
avg_total_power_insn_cc1      40.9364 # average total power per insn_cc1
rename_power_cc2       21649081.5196 # total power usage of rename unit_cc2
bpred_power_cc2        3886543.7143 # total power usage of bpred unit_cc2
window_power_cc2       405390464.8777 # total power usage of instruction window_cc2
lsq_power_cc2          57961184.9127 # total power usage of lsq_cc2
regfile_power_cc2      75514239.2687 # total power usage of arch. regfile_cc2
icache_power_cc2       48818414.9436 # total power usage of icache_cc2
dcache_power_cc2       138824712.2153 # total power usage of dcache_cc2
dcache2_power_cc2      1957545.4779 # total power usage of dcache2_cc2
alu_power_cc2          199648521.9019 # total power usage of alu_cc2
resultbus_power_cc2    233869677.7857 # total power usage of resultbus_cc2
clock_power_cc2        444396948.9584 # total power usage of clock_cc2
avg_rename_power_cc2         0.4384 # avg power usage of rename unit_cc2
avg_bpred_power_cc2          0.0787 # avg power usage of bpred unit_cc2
avg_window_power_cc2         8.2085 # avg power usage of instruction window_cc2
avg_lsq_power_cc2            1.1736 # avg power usage of instruction lsq_cc2
avg_regfile_power_cc2        1.5290 # avg power usage of arch. regfile_cc2
avg_icache_power_cc2         0.9885 # avg power usage of icache_cc2
avg_dcache_power_cc2         2.8110 # avg power usage of dcache_cc2
avg_dcache2_power_cc2        0.0396 # avg power usage of dcache2_cc2
avg_alu_power_cc2            4.0425 # avg power usage of alu_cc2
avg_resultbus_power_cc2       4.7355 # avg power usage of resultbus_cc2
avg_clock_power_cc2          8.9983 # avg power usage of clock_cc2
fetch_stage_power_cc2  52704958.6579 # total power usage of fetch stage_cc2
dispatch_stage_power_cc2 21649081.5196 # total power usage of dispatch stage_cc2
issue_stage_power_cc2  1037652107.1713 # total power usage of issue stage_cc2
avg_fetch_power_cc2          1.0672 # average power of fetch unit per cycle_cc2
avg_dispatch_power_cc2       0.4384 # average power of dispatch unit per cycle_cc2
avg_issue_power_cc2         21.0107 # average power of issue unit per cycle_cc2
total_power_cycle_cc2  1631917335.5759 # total power per cycle_cc2
avg_total_power_cycle_cc2      33.0436 # average total power per cycle_cc2
avg_total_power_insn_cc2      15.4093 # average total power per insn_cc2
rename_power_cc3       32739316.1581 # total power usage of rename unit_cc3
bpred_power_cc3        18679262.7156 # total power usage of bpred unit_cc3
window_power_cc3       503731056.3651 # total power usage of instruction window_cc3
lsq_power_cc3          91541112.6291 # total power usage of lsq_cc3
regfile_power_cc3      155987623.0723 # total power usage of arch. regfile_cc3
icache_power_cc3       58913936.9480 # total power usage of icache_cc3
dcache_power_cc3       179586022.4221 # total power usage of dcache_cc3
dcache2_power_cc3      16607857.4738 # total power usage of dcache2_cc3
alu_power_cc3          310629126.5906 # total power usage of alu_cc3
resultbus_power_cc3    309761293.3652 # total power usage of resultbus_cc3
clock_power_cc3        623770517.6337 # total power usage of clock_cc3
avg_rename_power_cc3         0.6629 # avg power usage of rename unit_cc3
avg_bpred_power_cc3          0.3782 # avg power usage of bpred unit_cc3
avg_window_power_cc3        10.1997 # avg power usage of instruction window_cc3
avg_lsq_power_cc3            1.8536 # avg power usage of instruction lsq_cc3
avg_regfile_power_cc3        3.1585 # avg power usage of arch. regfile_cc3
avg_icache_power_cc3         1.1929 # avg power usage of icache_cc3
avg_dcache_power_cc3         3.6363 # avg power usage of dcache_cc3
avg_dcache2_power_cc3        0.3363 # avg power usage of dcache2_cc3
avg_alu_power_cc3            6.2897 # avg power usage of alu_cc3
avg_resultbus_power_cc3       6.2721 # avg power usage of resultbus_cc3
avg_clock_power_cc3         12.6303 # avg power usage of clock_cc3
fetch_stage_power_cc3  77593199.6636 # total power usage of fetch stage_cc3
dispatch_stage_power_cc3 32739316.1581 # total power usage of dispatch stage_cc3
issue_stage_power_cc3  1411856468.8459 # total power usage of issue stage_cc3
avg_fetch_power_cc3          1.5711 # average power of fetch unit per cycle_cc3
avg_dispatch_power_cc3       0.6629 # average power of dispatch unit per cycle_cc3
avg_issue_power_cc3         28.5877 # average power of issue unit per cycle_cc3
total_power_cycle_cc3  2301947125.3735 # total power per cycle_cc3
avg_total_power_cycle_cc3      46.6106 # average total power per cycle_cc3
avg_total_power_insn_cc3      21.7360 # average total power per insn_cc3
total_rename_access       105904957 # total number accesses of rename unit
total_bpred_access          2494452 # total number accesses of bpred unit
total_window_access       386264451 # total number accesses of instruction window
total_lsq_access           48283212 # total number accesses of load/store queue
total_regfile_access      162908464 # total number accesses of arch. regfile
total_icache_access       111114559 # total number accesses of icache
total_dcache_access        43120643 # total number accesses of dcache
total_dcache2_access        2523442 # total number accesses of dcache2
total_alu_access           99949679 # total number accesses of alu
total_resultbus_access    127405549 # total number accesses of resultbus
avg_rename_access            2.1444 # avg number accesses of rename unit
avg_bpred_access             0.0505 # avg number accesses of bpred unit
avg_window_access            7.8212 # avg number accesses of instruction window
avg_lsq_access               0.9777 # avg number accesses of lsq
avg_regfile_access           3.2986 # avg number accesses of arch. regfile
avg_icache_access            2.2499 # avg number accesses of icache
avg_dcache_access            0.8731 # avg number accesses of dcache
avg_dcache2_access           0.0511 # avg number accesses of dcache2
avg_alu_access               2.0238 # avg number accesses of alu
avg_resultbus_access         2.5797 # avg number accesses of resultbus
max_rename_access                16 # max number accesses of rename unit
max_bpred_access                  3 # max number accesses of bpred unit
max_window_access                47 # max number accesses of instruction window
max_lsq_access                   16 # max number accesses of load/store queue
max_regfile_access               44 # max number accesses of arch. regfile
max_icache_access                16 # max number accesses of icache
max_dcache_access                 8 # max number accesses of dcache
max_dcache2_access                7 # max number accesses of dcache2
max_alu_access                   14 # max number accesses of alu
max_resultbus_access             19 # max number accesses of resultbus
max_cycle_power_cc1        188.0082 # maximum cycle power usage of cc1
max_cycle_power_cc2        143.7860 # maximum cycle power usage of cc2
max_cycle_power_cc3        148.0332 # maximum cycle power usage of cc3
sim_invalid_addrs                 0 # total non-speculative bogus addresses seen (debug var)
ld_text_base           0x0120000000 # program text (code) segment base
ld_text_size                1867776 # program text (code) size in bytes
ld_data_base           0x0140000000 # program initialized data segment base
ld_data_size                 373328 # program init'ed `.data' and uninit'ed `.bss' size in bytes
ld_stack_base          0x011ff9b000 # program stack segment base (highest address in stack)
ld_stack_size                 16384 # program initial stack size
ld_prog_entry          0x0120069a70 # program entry point (initial PC)
ld_environ_base        0x011ff96440 # program environment base address address
ld_target_big_endian              0 # target executable endian-ness, non-zero if big endian
mem.page_count                13429 # total number of pages allocated
mem.page_mem                107432k # total size of memory pages allocated
mem.ptab_misses              283982 # total first level page table misses
mem.ptab_accesses        1163758924 # total page table accesses
mem.ptab_miss_rate           0.0002 # first level page table miss rate

