sim-outorder: SimpleScalar/Alpha Tool Set version 3.0 of August, 2003.
Copyright (c) 1994-2003 by Todd M. Austin, Ph.D. and SimpleScalar, LLC.
All Rights Reserved. This version of SimpleScalar is licensed for academic
non-commercial use.  No portion of this work may be used by any commercial
entity, or for any commercial purpose, without the prior written permission
of SimpleScalar, LLC (info@simplescalar.com).


Processor Parameters:
Issue Width: 16
Window Size: 64
Number of Virtual Registers: 32
Number of Physical Registers: 64
Datapath Width: 64
Total Power Consumption: 231.501
Branch Predictor Power Consumption: 3.11615  (1.36%)
 branch target buffer power (W): 2.49493
 local predict power (W): 0.354432
 global predict power (W): 0.0996078
 chooser power (W): 0.0702439
 RAS power (W): 0.0969383
Rename Logic Power Consumption: 3.27072  (1.43%)
 Instruction Decode Power (W): 0.0639661
 RAT decode_power (W): 0.454058
 RAT wordline_power (W): 0.227603
 RAT bitline_power (W): 2.30694
 DCL Comparators (W): 0.218151
Instruction Window Power Consumption: 43.216  (18.8%)
 tagdrive (W): 2.9395
 tagmatch (W): 0.989695
 Selection Logic (W): 0.225484
 decode_power (W): 0.976583
 wordline_power (W): 1.0557
 bitline_power (W): 37.0291
Load/Store Queue Power Consumption: 9.33077  (4.07%)
 tagdrive (W): 4.52311
 tagmatch (W): 1.71883
 decode_power (W): 0.162764
 wordline_power (W): 0.0433172
 bitline_power (W): 2.88275
Arch. Register File Power Consumption: 25.1387  (11%)
 decode_power (W): 0.454058
 wordline_power (W): 1.0557
 bitline_power (W): 23.629
Result Bus Power Consumption: 31.3281  (13.7%)
Total Clock Power: 61.8648  (27%)
Int ALU Power: 4.66013  (2.03%)
FP ALU Power: 28.5621  (12.4%)
Instruction Cache Power Consumption: 2.76773  (1.21%)
 decode_power (W): 0.151353
 wordline_power (W): 0.180479
 bitline_power (W): 1.42251
 senseamp_power (W): 0.768
 tagarray_power (W): 0.245382
Itlb_power (W): 0.264936 (0.115%)
Data Cache Power Consumption: 11.0709  (4.82%)
 decode_power (W): 0.60541
 wordline_power (W): 0.721917
 bitline_power (W): 5.69006
 senseamp_power (W): 3.072
 tagarray_power (W): 0.981529
Dtlb_power (W): 1.80688 (0.787%)
Level 2 Cache Power Consumption: 3.10298 (1.35%)
 decode_power (W): 0.19487
 wordline_power (W): 0.0430878
 bitline_power (W): 1.77274
 senseamp_power (W): 0.192
 tagarray_power (W): 0.900275
sim: loading EIO file: ../benchmarks/197.parser.spec_ref.eio.gz
sim: command line: ./sim-outorder -config ../configs/current.config ../benchmarks/197.parser.spec_ref.eio.gz 

sim: simulation started @ Tue Nov 24 13:08:20 2015, options follow:

sim-outorder: This simulator implements a very detailed out-of-order issue
superscalar processor with a two-level memory system and speculative
execution support.  This simulator is a performance simulator, tracking the
latency of all pipeline operations.

# -config                     # load configuration from a file
# -dumpconfig                 # dump configuration to a file
# -h                    false # print help message    
# -v                    false # verbose operation     
# -d                    false # enable debug message  
# -i                    false # start in Dlite debugger
-seed                       1 # random number generator seed (0 for timer seed)
# -q                    false # initialize and terminate immediately
# -chkpt               <null> # restore EIO trace execution from <fname>
# -redir:sim     ../results/28_23_bp/197.parser.spec_ref.eio.gz.out # redirect simulator output to file (non-interactive only)
# -redir:prog       /dev/null # redirect simulated program output to file
-nice                       0 # simulator scheduling priority
-freq            600000000.0000 # frequency             
-max:inst           100000000 # maximum number of inst's to execute
-fastfwd                    0 # number of insts skipped before timing starts
# -ptrace              <null> # generate pipetrace, i.e., <fname|stdout|stderr> <range>
-fetch:ifqsize             16 # instruction fetch queue size (in insts)
-fetch:mplat               15 # extra branch mis-prediction latency
-fetch:speed                1 # speed of front-end of machine relative to execution core
-bpred                   2lev # branch predictor type {nottaken|taken|perfect|bimod|2lev|comb}
-bpred:bimod     2048 # bimodal predictor config (<table size>)
-bpred:2lev      1 8192 8 0 # 2-level predictor config (<l1size> <l2size> <hist_size> <xor>)
-bpred:comb      1024 # combining predictor config (<meta_table_size>)
-bpred:ras                  8 # return address stack size (0 for no return stack)
-bpred:btb       512 4 # BTB config (<num_sets> <associativity>)
# -bpred:spec_update       <null> # speculative predictors update in {ID|WB} (default non-spec)
-decode:width              16 # instruction decode B/W (insts/cycle)
-issue:width               16 # instruction issue B/W (insts/cycle)
-issue:inorder          false # run pipeline with in-order issue
-issue:wrongpath         true # issue instructions down wrong execution paths
-commit:width              16 # instruction commit B/W (insts/cycle)
-ruu:size                  64 # register update unit (RUU) size
-lsq:size                  64 # load/store queue (LSQ) size
-cache:dl1       dl1:32:64:8:f # l1 data cache config, i.e., {<config>|none}
-cache:dl1lat               1 # l1 data cache hit latency (in cycles)
-cache:dl2       dl2:256:64:8:f # l2 data cache config, i.e., {<config>|none}
-cache:dl2lat               2 # l2 data cache hit latency (in cycles)
-cache:il1       il1:32:64:8:f # l1 inst cache config, i.e., {<config>|dl1|dl2|none}
-cache:il1lat               1 # l1 instruction cache hit latency (in cycles)
-cache:il2                dl2 # l2 instruction cache config, i.e., {<config>|dl2|none}
-cache:il2lat               2 # l2 instruction cache hit latency (in cycles)
-cache:flush            false # flush caches on system calls
-cache:icompress        false # convert 64-bit inst addresses to 32-bit inst equivalents
-mem:lat         103 1 # memory access latency (<first_chunk> <inter_chunk>)
-mem:width                  8 # memory access bus width (in bytes)
-tlb:itlb        itlb:16:4096:4:l # instruction TLB config, i.e., {<config>|none}
-tlb:dtlb        dtlb:32:4096:4:l # data TLB config, i.e., {<config>|none}
-tlb:lat                   30 # inst/data TLB miss latency (in cycles)
-res:ialu                   4 # total number of integer ALU's available
-res:imult                  2 # total number of integer multiplier/dividers available
-res:memport                4 # total number of memory system ports available (to CPU)
-res:fpalu                  8 # total number of floating point ALU's available
-res:fpmult                 2 # total number of floating point multiplier/dividers available
# -pcstat              <null> # profile stat(s) against text addr's (mult uses ok)
-bugcompat              false # operate in backward-compatible bugs mode (for testing only)

  Pipetrace range arguments are formatted as follows:

    {{@|#}<start>}:{{@|#|+}<end>}

  Both ends of the range are optional, if neither are specified, the entire
  execution is traced.  Ranges that start with a `@' designate an address
  range to be traced, those that start with an `#' designate a cycle count
  range.  All other range values represent an instruction count range.  The
  second argument, if specified with a `+', indicates a value relative
  to the first argument, e.g., 1000:+100 == 1000:1100.  Program symbols may
  be used in all contexts.

    Examples:   -ptrace FOO.trc #0:#1000
                -ptrace BAR.trc @2000:
                -ptrace BLAH.trc :1500
                -ptrace UXXE.trc :
                -ptrace FOOBAR.trc @main:+278

  Branch predictor configuration examples for 2-level predictor:
    Configurations:   N, M, W, X
      N   # entries in first level (# of shift register(s))
      W   width of shift register(s)
      M   # entries in 2nd level (# of counters, or other FSM)
      X   (yes-1/no-0) xor history and address for 2nd level index
    Sample predictors:
      GAg     : 1, W, 2^W, 0
      GAp     : 1, W, M (M > 2^W), 0
      PAg     : N, W, 2^W, 0
      PAp     : N, W, M (M == 2^(N+W)), 0
      gshare  : 1, W, 2^W, 1
  Predictor `comb' combines a bimodal and a 2-level predictor.

  The cache config parameter <config> has the following format:

    <name>:<nsets>:<bsize>:<assoc>:<repl>

    <name>   - name of the cache being defined
    <nsets>  - number of sets in the cache
    <bsize>  - block size of the cache
    <assoc>  - associativity of the cache
    <repl>   - block replacement strategy, 'l'-LRU, 'f'-FIFO, 'r'-random

    Examples:   -cache:dl1 dl1:4096:32:1:l
                -dtlb dtlb:128:4096:32:r

  Cache levels can be unified by pointing a level of the instruction cache
  hierarchy at the data cache hiearchy using the "dl1" and "dl2" cache
  configuration arguments.  Most sensible combinations are supported, e.g.,

    A unified l2 cache (il2 is pointed at dl2):
      -cache:il1 il1:128:64:1:l -cache:il2 dl2
      -cache:dl1 dl1:256:32:1:l -cache:dl2 ul2:1024:64:2:l

    Or, a fully unified cache hierarchy (il1 pointed at dl1):
      -cache:il1 dl1
      -cache:dl1 ul1:256:32:1:l -cache:dl2 ul2:1024:64:2:l



sim: ** starting performance simulation **

sim: ** simulation statistics **
sim_num_insn              100000002 # total number of instructions committed
sim_num_refs               36930324 # total number of loads and stores committed
sim_num_loads              27152726 # total number of loads committed
sim_num_stores         9777598.0000 # total number of stores committed
sim_num_branches           15299216 # total number of branches committed
sim_elapsed_time                177 # total simulation time in seconds
sim_inst_rate           564971.7627 # simulation speed (in insts/sec)
sim_total_insn            144517316 # total number of instructions executed
sim_total_refs             56428377 # total number of loads and stores executed
sim_total_loads            41966458 # total number of loads executed
sim_total_stores       14461919.0000 # total number of stores executed
sim_total_branches         22680958 # total number of branches executed
sim_cycle                 101288709 # total simulation time in cycles
sim_IPC                      0.9873 # instructions per cycle
sim_CPI                      1.0129 # cycles per instruction
sim_exec_BW                  1.4268 # total instructions (mis-spec + committed) per cycle
sim_IPB                      6.5363 # instruction per branch
IFQ_count                1185479242 # cumulative IFQ occupancy
IFQ_fcount                 66626840 # cumulative IFQ full count
ifq_occupancy               11.7040 # avg IFQ occupancy (insn's)
ifq_rate                     1.4268 # avg IFQ dispatch rate (insn/cycle)
ifq_latency                  8.2030 # avg IFQ occupant latency (cycle's)
ifq_full                     0.6578 # fraction of time (cycle's) IFQ was full
RUU_count                4961840390 # cumulative RUU occupancy
RUU_fcount                 70069145 # cumulative RUU full count
ruu_occupancy               48.9871 # avg RUU occupancy (insn's)
ruu_rate                     1.4268 # avg RUU dispatch rate (insn/cycle)
ruu_latency                 34.3339 # avg RUU occupant latency (cycle's)
ruu_full                     0.6918 # fraction of time (cycle's) RUU was full
LSQ_count                1729190638 # cumulative LSQ occupancy
LSQ_fcount                        0 # cumulative LSQ full count
lsq_occupancy               17.0719 # avg LSQ occupancy (insn's)
lsq_rate                     1.4268 # avg LSQ dispatch rate (insn/cycle)
lsq_latency                 11.9653 # avg LSQ occupant latency (cycle's)
lsq_full                     0.0000 # fraction of time (cycle's) LSQ was full
sim_slip                 5583818522 # total number of slip cycles
avg_sim_slip                55.8382 # the average slip between issue and retirement
bpred_2lev.lookups         24734289 # total number of bpred lookups
bpred_2lev.updates         15299206 # total number of updates
bpred_2lev.addr_hits       14054583 # total number of address-predicted hits
bpred_2lev.dir_hits        14349473 # total number of direction-predicted hits (includes addr-hits)
bpred_2lev.misses            949733 # total number of misses
bpred_2lev.jr_hits          1608955 # total number of address-predicted hits for JR's
bpred_2lev.jr_seen          1901434 # total number of JR's seen
bpred_2lev.jr_non_ras_hits.PP            6 # total number of address-predicted hits for non-RAS JR's
bpred_2lev.jr_non_ras_seen.PP           13 # total number of non-RAS JR's seen
bpred_2lev.bpred_addr_rate    0.9186 # branch address-prediction rate (i.e., addr-hits/updates)
bpred_2lev.bpred_dir_rate    0.9379 # branch direction-prediction rate (i.e., all-hits/updates)
bpred_2lev.bpred_jr_rate    0.8462 # JR address-prediction rate (i.e., JR addr-hits/JRs seen)
bpred_2lev.bpred_jr_non_ras_rate.PP    0.4615 # non-RAS JR addr-pred rate (ie, non-RAS JR hits/JRs seen)
bpred_2lev.retstack_pushes      3258014 # total number of address pushed onto ret-addr stack
bpred_2lev.retstack_pops      3317835 # total number of address popped off of ret-addr stack
bpred_2lev.used_ras.PP      1901421 # total number of RAS predictions used
bpred_2lev.ras_hits.PP      1608949 # total number of RAS hits
bpred_2lev.ras_rate.PP    0.8462 # RAS prediction rate (i.e., RAS hits/used RAS)
il1.accesses              157496102 # total number of accesses
il1.hits                  157490929 # total number of hits
il1.misses                     5173 # total number of misses
il1.replacements               4917 # total number of replacements
il1.writebacks                    0 # total number of writebacks
il1.invalidations                 0 # total number of invalidations
il1.miss_rate                0.0000 # miss rate (i.e., misses/ref)
il1.repl_rate                0.0000 # replacement rate (i.e., repls/ref)
il1.wb_rate                  0.0000 # writeback rate (i.e., wrbks/ref)
il1.inv_rate                 0.0000 # invalidation rate (i.e., invs/ref)
dl1.accesses               39280578 # total number of accesses
dl1.hits                   37937064 # total number of hits
dl1.misses                  1343514 # total number of misses
dl1.replacements            1343258 # total number of replacements
dl1.writebacks               463440 # total number of writebacks
dl1.invalidations                 0 # total number of invalidations
dl1.miss_rate                0.0342 # miss rate (i.e., misses/ref)
dl1.repl_rate                0.0342 # replacement rate (i.e., repls/ref)
dl1.wb_rate                  0.0118 # writeback rate (i.e., wrbks/ref)
dl1.inv_rate                 0.0000 # invalidation rate (i.e., invs/ref)
dl2.accesses                1812127 # total number of accesses
dl2.hits                    1176191 # total number of hits
dl2.misses                   635936 # total number of misses
dl2.replacements             633888 # total number of replacements
dl2.writebacks               329085 # total number of writebacks
dl2.invalidations                 0 # total number of invalidations
dl2.miss_rate                0.3509 # miss rate (i.e., misses/ref)
dl2.repl_rate                0.3498 # replacement rate (i.e., repls/ref)
dl2.wb_rate                  0.1816 # writeback rate (i.e., wrbks/ref)
dl2.inv_rate                 0.0000 # invalidation rate (i.e., invs/ref)
itlb.accesses             157496102 # total number of accesses
itlb.hits                 157496060 # total number of hits
itlb.misses                      42 # total number of misses
itlb.replacements                 0 # total number of replacements
itlb.writebacks                   0 # total number of writebacks
itlb.invalidations                0 # total number of invalidations
itlb.miss_rate               0.0000 # miss rate (i.e., misses/ref)
itlb.repl_rate               0.0000 # replacement rate (i.e., repls/ref)
itlb.wb_rate                 0.0000 # writeback rate (i.e., wrbks/ref)
itlb.inv_rate                0.0000 # invalidation rate (i.e., invs/ref)
dtlb.accesses              40600815 # total number of accesses
dtlb.hits                  40550090 # total number of hits
dtlb.misses                   50725 # total number of misses
dtlb.replacements             50597 # total number of replacements
dtlb.writebacks                   0 # total number of writebacks
dtlb.invalidations                0 # total number of invalidations
dtlb.miss_rate               0.0012 # miss rate (i.e., misses/ref)
dtlb.repl_rate               0.0012 # replacement rate (i.e., repls/ref)
dtlb.wb_rate                 0.0000 # writeback rate (i.e., wrbks/ref)
dtlb.inv_rate                0.0000 # invalidation rate (i.e., invs/ref)
rename_power           331286856.0225 # total power usage of rename unit
bpred_power            315630843.5309 # total power usage of bpred unit
window_power           4377295849.2464 # total power usage of instruction window
lsq_power              945101857.3605 # total power usage of load/store queue
regfile_power          2546270788.6920 # total power usage of arch. regfile
icache_power           307174640.2210 # total power usage of icache
dcache_power           1304375346.6549 # total power usage of dcache
dcache2_power          314296511.4885 # total power usage of dcache2
alu_power              3365035813.5910 # total power usage of alu
falu_power             2893017214.0641 # total power usage of falu
resultbus_power        3173184434.3113 # total power usage of resultbus
clock_power            6266205190.4534 # total power usage of clock
avg_rename_power             3.2707 # avg power usage of rename unit
avg_bpred_power              3.1162 # avg power usage of bpred unit
avg_window_power            43.2160 # avg power usage of instruction window
avg_lsq_power                9.3308 # avg power usage of lsq
avg_regfile_power           25.1387 # avg power usage of arch. regfile
avg_icache_power             3.0327 # avg power usage of icache
avg_dcache_power            12.8778 # avg power usage of dcache
avg_dcache2_power            3.1030 # avg power usage of dcache2
avg_alu_power               33.2222 # avg power usage of alu
avg_falu_power              28.5621 # avg power usage of falu
avg_resultbus_power         31.3281 # avg power usage of resultbus
avg_clock_power             61.8648 # avg power usage of clock
fetch_stage_power      622805483.7519 # total power usage of fetch stage
dispatch_stage_power   331286856.0225 # total power usage of dispatch stage
issue_stage_power      13479289812.6527 # total power usage of issue stage
avg_fetch_power              6.1488 # average power of fetch unit per cycle
avg_dispatch_power           3.2707 # average power of dispatch unit per cycle
avg_issue_power            133.0779 # average power of issue unit per cycle
total_power            23245858131.5725 # total power per cycle
avg_total_power_cycle      229.5010 # average total power per cycle
avg_total_power_cycle_nofp_nod2     197.8359 # average total power per cycle
avg_total_power_insn       160.8517 # average total power per insn
avg_total_power_insn_nofp_nod2     138.6584 # average total power per insn
rename_power_cc1       100695355.9467 # total power usage of rename unit_cc1
bpred_power_cc1        34483596.9091 # total power usage of bpred unit_cc1
window_power_cc1       1535894499.1341 # total power usage of instruction window_cc1
lsq_power_cc1          127882119.1463 # total power usage of lsq_cc1
regfile_power_cc1      761131383.5552 # total power usage of arch. regfile_cc1
icache_power_cc1       99887033.4016 # total power usage of icache_cc1
dcache_power_cc1       244562171.2651 # total power usage of dcache_cc1
dcache2_power_cc1      4007998.7349 # total power usage of dcache2_cc1
alu_power_cc1          172069692.1953 # total power usage of alu_cc1
resultbus_power_cc1    1086971163.7911 # total power usage of resultbus_cc1
clock_power_cc1        1138948903.4729 # total power usage of clock_cc1
avg_rename_power_cc1         0.9941 # avg power usage of rename unit_cc1
avg_bpred_power_cc1          0.3404 # avg power usage of bpred unit_cc1
avg_window_power_cc1        15.1635 # avg power usage of instruction window_cc1
avg_lsq_power_cc1            1.2626 # avg power usage of lsq_cc1
avg_regfile_power_cc1        7.5145 # avg power usage of arch. regfile_cc1
avg_icache_power_cc1         0.9862 # avg power usage of icache_cc1
avg_dcache_power_cc1         2.4145 # avg power usage of dcache_cc1
avg_dcache2_power_cc1        0.0396 # avg power usage of dcache2_cc1
avg_alu_power_cc1            1.6988 # avg power usage of alu_cc1
avg_resultbus_power_cc1      10.7314 # avg power usage of resultbus_cc1
avg_clock_power_cc1         11.2446 # avg power usage of clock_cc1
fetch_stage_power_cc1  134370630.3107 # total power usage of fetch stage_cc1
dispatch_stage_power_cc1 100695355.9467 # total power usage of dispatch stage_cc1
issue_stage_power_cc1  3171387644.2667 # total power usage of issue stage_cc1
avg_fetch_power_cc1          1.3266 # average power of fetch unit per cycle_cc1
avg_dispatch_power_cc1       0.9941 # average power of dispatch unit per cycle_cc1
avg_issue_power_cc1         31.3104 # average power of issue unit per cycle_cc1
total_power_cycle_cc1  5306533917.5522 # total power per cycle_cc1
avg_total_power_cycle_cc1      52.3902 # average total power per cycle_cc1
avg_total_power_insn_cc1      36.7190 # average total power per insn_cc1
rename_power_cc2       29542216.3717 # total power usage of rename unit_cc2
bpred_power_cc2        23837312.9299 # total power usage of bpred unit_cc2
window_power_cc2       455383570.2555 # total power usage of instruction window_cc2
lsq_power_cc2          56129148.0920 # total power usage of lsq_cc2
regfile_power_cc2      58987779.7641 # total power usage of arch. regfile_cc2
icache_power_cc2       99887033.4016 # total power usage of icache_cc2
dcache_power_cc2       126461818.6771 # total power usage of dcache_cc2
dcache2_power_cc2      1405746.9973 # total power usage of dcache2_cc2
alu_power_cc2          131569888.0597 # total power usage of alu_cc2
resultbus_power_cc2    229815415.1654 # total power usage of resultbus_cc2
clock_power_cc2        344219349.7826 # total power usage of clock_cc2
avg_rename_power_cc2         0.2917 # avg power usage of rename unit_cc2
avg_bpred_power_cc2          0.2353 # avg power usage of bpred unit_cc2
avg_window_power_cc2         4.4959 # avg power usage of instruction window_cc2
avg_lsq_power_cc2            0.5542 # avg power usage of instruction lsq_cc2
avg_regfile_power_cc2        0.5824 # avg power usage of arch. regfile_cc2
avg_icache_power_cc2         0.9862 # avg power usage of icache_cc2
avg_dcache_power_cc2         1.2485 # avg power usage of dcache_cc2
avg_dcache2_power_cc2        0.0139 # avg power usage of dcache2_cc2
avg_alu_power_cc2            1.2990 # avg power usage of alu_cc2
avg_resultbus_power_cc2       2.2689 # avg power usage of resultbus_cc2
avg_clock_power_cc2          3.3984 # avg power usage of clock_cc2
fetch_stage_power_cc2  123724346.3315 # total power usage of fetch stage_cc2
dispatch_stage_power_cc2 29542216.3717 # total power usage of dispatch stage_cc2
issue_stage_power_cc2  1000765587.2471 # total power usage of issue stage_cc2
avg_fetch_power_cc2          1.2215 # average power of fetch unit per cycle_cc2
avg_dispatch_power_cc2       0.2917 # average power of dispatch unit per cycle_cc2
avg_issue_power_cc2          9.8803 # average power of issue unit per cycle_cc2
total_power_cycle_cc2  1557239279.4969 # total power per cycle_cc2
avg_total_power_cycle_cc2      15.3743 # average total power per cycle_cc2
avg_total_power_insn_cc2      10.7755 # average total power per insn_cc2
rename_power_cc3       52601366.4963 # total power usage of rename unit_cc3
bpred_power_cc3        52293759.7926 # total power usage of bpred unit_cc3
window_power_cc3       721862292.5410 # total power usage of instruction window_cc3
lsq_power_cc3          137559309.0694 # total power usage of lsq_cc3
regfile_power_cc3      229506425.2909 # total power usage of arch. regfile_cc3
icache_power_cc3       120615794.2532 # total power usage of icache_cc3
dcache_power_cc3       232827447.4386 # total power usage of dcache_cc3
dcache2_power_cc3      32434665.6615 # total power usage of dcache2_cc3
alu_power_cc3          450866499.5264 # total power usage of alu_cc3
resultbus_power_cc3    431190267.6986 # total power usage of resultbus_cc3
clock_power_cc3        848868535.0355 # total power usage of clock_cc3
avg_rename_power_cc3         0.5193 # avg power usage of rename unit_cc3
avg_bpred_power_cc3          0.5163 # avg power usage of bpred unit_cc3
avg_window_power_cc3         7.1268 # avg power usage of instruction window_cc3
avg_lsq_power_cc3            1.3581 # avg power usage of instruction lsq_cc3
avg_regfile_power_cc3        2.2659 # avg power usage of arch. regfile_cc3
avg_icache_power_cc3         1.1908 # avg power usage of icache_cc3
avg_dcache_power_cc3         2.2987 # avg power usage of dcache_cc3
avg_dcache2_power_cc3        0.3202 # avg power usage of dcache2_cc3
avg_alu_power_cc3            4.4513 # avg power usage of alu_cc3
avg_resultbus_power_cc3       4.2570 # avg power usage of resultbus_cc3
avg_clock_power_cc3          8.3807 # avg power usage of clock_cc3
fetch_stage_power_cc3  172909554.0458 # total power usage of fetch stage_cc3
dispatch_stage_power_cc3 52601366.4963 # total power usage of dispatch stage_cc3
issue_stage_power_cc3  2006740481.9355 # total power usage of issue stage_cc3
avg_fetch_power_cc3          1.7071 # average power of fetch unit per cycle_cc3
avg_dispatch_power_cc3       0.5193 # average power of dispatch unit per cycle_cc3
avg_issue_power_cc3         19.8121 # average power of issue unit per cycle_cc3
total_power_cycle_cc3  3310626362.8041 # total power per cycle_cc3
avg_total_power_cycle_cc3      32.6850 # average total power per cycle_cc3
avg_total_power_insn_cc3      22.9082 # average total power per insn_cc3
total_rename_access       144517316 # total number accesses of rename unit
total_bpred_access         15299206 # total number accesses of bpred unit
total_window_access       437052166 # total number accesses of instruction window
total_lsq_access           42695799 # total number accesses of load/store queue
total_regfile_access      125362747 # total number accesses of arch. regfile
total_icache_access       158024092 # total number accesses of icache
total_dcache_access        39280578 # total number accesses of dcache
total_dcache2_access        1812127 # total number accesses of dcache2
total_alu_access          112781205 # total number accesses of alu
total_resultbus_access    125196902 # total number accesses of resultbus
avg_rename_access            1.4268 # avg number accesses of rename unit
avg_bpred_access             0.1510 # avg number accesses of bpred unit
avg_window_access            4.3149 # avg number accesses of instruction window
avg_lsq_access               0.4215 # avg number accesses of lsq
avg_regfile_access           1.2377 # avg number accesses of arch. regfile
avg_icache_access            1.5601 # avg number accesses of icache
avg_dcache_access            0.3878 # avg number accesses of dcache
avg_dcache2_access           0.0179 # avg number accesses of dcache2
avg_alu_access               1.1135 # avg number accesses of alu
avg_resultbus_access         1.2360 # avg number accesses of resultbus
max_rename_access                16 # max number accesses of rename unit
max_bpred_access                  7 # max number accesses of bpred unit
max_window_access                44 # max number accesses of instruction window
max_lsq_access                   12 # max number accesses of load/store queue
max_regfile_access               39 # max number accesses of arch. regfile
max_icache_access                16 # max number accesses of icache
max_dcache_access                 8 # max number accesses of dcache
max_dcache2_access                8 # max number accesses of dcache2
max_alu_access                    7 # max number accesses of alu
max_resultbus_access             15 # max number accesses of resultbus
max_cycle_power_cc1        182.3118 # maximum cycle power usage of cc1
max_cycle_power_cc2        110.7742 # maximum cycle power usage of cc2
max_cycle_power_cc3        118.3226 # maximum cycle power usage of cc3
sim_invalid_addrs                 0 # total non-speculative bogus addresses seen (debug var)
ld_text_base           0x0120000000 # program text (code) segment base
ld_text_size                 319488 # program text (code) size in bytes
ld_data_base           0x0140000000 # program initialized data segment base
ld_data_size                 288480 # program init'ed `.data' and uninit'ed `.bss' size in bytes
ld_stack_base          0x011ff9b000 # program stack segment base (highest address in stack)
ld_stack_size                 16384 # program initial stack size
ld_prog_entry          0x012001e99c # program entry point (initial PC)
ld_environ_base        0x011ff966c0 # program environment base address address
ld_target_big_endian              0 # target executable endian-ness, non-zero if big endian
mem.page_count                 4714 # total number of pages allocated
mem.page_mem                 37712k # total size of memory pages allocated
mem.ptab_misses               39336 # total first level page table misses
mem.ptab_accesses         938015212 # total page table accesses
mem.ptab_miss_rate           0.0000 # first level page table miss rate

