sim-outorder: SimpleScalar/Alpha Tool Set version 3.0 of August, 2003.
Copyright (c) 1994-2003 by Todd M. Austin, Ph.D. and SimpleScalar, LLC.
All Rights Reserved. This version of SimpleScalar is licensed for academic
non-commercial use.  No portion of this work may be used by any commercial
entity, or for any commercial purpose, without the prior written permission
of SimpleScalar, LLC (info@simplescalar.com).


Processor Parameters:
Issue Width: 16
Window Size: 64
Number of Virtual Registers: 32
Number of Physical Registers: 64
Datapath Width: 64
Total Power Consumption: 231.501
Branch Predictor Power Consumption: 3.11615  (1.36%)
 branch target buffer power (W): 2.49493
 local predict power (W): 0.354432
 global predict power (W): 0.0996078
 chooser power (W): 0.0702439
 RAS power (W): 0.0969383
Rename Logic Power Consumption: 3.27072  (1.43%)
 Instruction Decode Power (W): 0.0639661
 RAT decode_power (W): 0.454058
 RAT wordline_power (W): 0.227603
 RAT bitline_power (W): 2.30694
 DCL Comparators (W): 0.218151
Instruction Window Power Consumption: 43.216  (18.8%)
 tagdrive (W): 2.9395
 tagmatch (W): 0.989695
 Selection Logic (W): 0.225484
 decode_power (W): 0.976583
 wordline_power (W): 1.0557
 bitline_power (W): 37.0291
Load/Store Queue Power Consumption: 9.33077  (4.07%)
 tagdrive (W): 4.52311
 tagmatch (W): 1.71883
 decode_power (W): 0.162764
 wordline_power (W): 0.0433172
 bitline_power (W): 2.88275
Arch. Register File Power Consumption: 25.1387  (11%)
 decode_power (W): 0.454058
 wordline_power (W): 1.0557
 bitline_power (W): 23.629
Result Bus Power Consumption: 31.3281  (13.7%)
Total Clock Power: 61.8648  (27%)
Int ALU Power: 4.66013  (2.03%)
FP ALU Power: 28.5621  (12.4%)
Instruction Cache Power Consumption: 2.76773  (1.21%)
 decode_power (W): 0.151353
 wordline_power (W): 0.180479
 bitline_power (W): 1.42251
 senseamp_power (W): 0.768
 tagarray_power (W): 0.245382
Itlb_power (W): 0.264936 (0.115%)
Data Cache Power Consumption: 11.0709  (4.82%)
 decode_power (W): 0.60541
 wordline_power (W): 0.721917
 bitline_power (W): 5.69006
 senseamp_power (W): 3.072
 tagarray_power (W): 0.981529
Dtlb_power (W): 1.80688 (0.787%)
Level 2 Cache Power Consumption: 3.10298 (1.35%)
 decode_power (W): 0.19487
 wordline_power (W): 0.0430878
 bitline_power (W): 1.77274
 senseamp_power (W): 0.192
 tagarray_power (W): 0.900275
sim: loading EIO file: ../benchmarks/252.eon.kajiya-ref.eio.gz
sim: command line: ./sim-outorder -config ../configs/current.config ../benchmarks/252.eon.kajiya-ref.eio.gz 

sim: simulation started @ Tue Nov 24 13:08:17 2015, options follow:

sim-outorder: This simulator implements a very detailed out-of-order issue
superscalar processor with a two-level memory system and speculative
execution support.  This simulator is a performance simulator, tracking the
latency of all pipeline operations.

# -config                     # load configuration from a file
# -dumpconfig                 # dump configuration to a file
# -h                    false # print help message    
# -v                    false # verbose operation     
# -d                    false # enable debug message  
# -i                    false # start in Dlite debugger
-seed                       1 # random number generator seed (0 for timer seed)
# -q                    false # initialize and terminate immediately
# -chkpt               <null> # restore EIO trace execution from <fname>
# -redir:sim     ../results/28_23_bp/252.eon.kajiya-ref.eio.gz.out # redirect simulator output to file (non-interactive only)
# -redir:prog       /dev/null # redirect simulated program output to file
-nice                       0 # simulator scheduling priority
-freq            600000000.0000 # frequency             
-max:inst           100000000 # maximum number of inst's to execute
-fastfwd                    0 # number of insts skipped before timing starts
# -ptrace              <null> # generate pipetrace, i.e., <fname|stdout|stderr> <range>
-fetch:ifqsize             16 # instruction fetch queue size (in insts)
-fetch:mplat               15 # extra branch mis-prediction latency
-fetch:speed                1 # speed of front-end of machine relative to execution core
-bpred                   2lev # branch predictor type {nottaken|taken|perfect|bimod|2lev|comb}
-bpred:bimod     2048 # bimodal predictor config (<table size>)
-bpred:2lev      1 8192 8 0 # 2-level predictor config (<l1size> <l2size> <hist_size> <xor>)
-bpred:comb      1024 # combining predictor config (<meta_table_size>)
-bpred:ras                  8 # return address stack size (0 for no return stack)
-bpred:btb       512 4 # BTB config (<num_sets> <associativity>)
# -bpred:spec_update       <null> # speculative predictors update in {ID|WB} (default non-spec)
-decode:width              16 # instruction decode B/W (insts/cycle)
-issue:width               16 # instruction issue B/W (insts/cycle)
-issue:inorder          false # run pipeline with in-order issue
-issue:wrongpath         true # issue instructions down wrong execution paths
-commit:width              16 # instruction commit B/W (insts/cycle)
-ruu:size                  64 # register update unit (RUU) size
-lsq:size                  64 # load/store queue (LSQ) size
-cache:dl1       dl1:32:64:8:f # l1 data cache config, i.e., {<config>|none}
-cache:dl1lat               1 # l1 data cache hit latency (in cycles)
-cache:dl2       dl2:256:64:8:f # l2 data cache config, i.e., {<config>|none}
-cache:dl2lat               2 # l2 data cache hit latency (in cycles)
-cache:il1       il1:32:64:8:f # l1 inst cache config, i.e., {<config>|dl1|dl2|none}
-cache:il1lat               1 # l1 instruction cache hit latency (in cycles)
-cache:il2                dl2 # l2 instruction cache config, i.e., {<config>|dl2|none}
-cache:il2lat               2 # l2 instruction cache hit latency (in cycles)
-cache:flush            false # flush caches on system calls
-cache:icompress        false # convert 64-bit inst addresses to 32-bit inst equivalents
-mem:lat         103 1 # memory access latency (<first_chunk> <inter_chunk>)
-mem:width                  8 # memory access bus width (in bytes)
-tlb:itlb        itlb:16:4096:4:l # instruction TLB config, i.e., {<config>|none}
-tlb:dtlb        dtlb:32:4096:4:l # data TLB config, i.e., {<config>|none}
-tlb:lat                   30 # inst/data TLB miss latency (in cycles)
-res:ialu                   4 # total number of integer ALU's available
-res:imult                  2 # total number of integer multiplier/dividers available
-res:memport                4 # total number of memory system ports available (to CPU)
-res:fpalu                  8 # total number of floating point ALU's available
-res:fpmult                 2 # total number of floating point multiplier/dividers available
# -pcstat              <null> # profile stat(s) against text addr's (mult uses ok)
-bugcompat              false # operate in backward-compatible bugs mode (for testing only)

  Pipetrace range arguments are formatted as follows:

    {{@|#}<start>}:{{@|#|+}<end>}

  Both ends of the range are optional, if neither are specified, the entire
  execution is traced.  Ranges that start with a `@' designate an address
  range to be traced, those that start with an `#' designate a cycle count
  range.  All other range values represent an instruction count range.  The
  second argument, if specified with a `+', indicates a value relative
  to the first argument, e.g., 1000:+100 == 1000:1100.  Program symbols may
  be used in all contexts.

    Examples:   -ptrace FOO.trc #0:#1000
                -ptrace BAR.trc @2000:
                -ptrace BLAH.trc :1500
                -ptrace UXXE.trc :
                -ptrace FOOBAR.trc @main:+278

  Branch predictor configuration examples for 2-level predictor:
    Configurations:   N, M, W, X
      N   # entries in first level (# of shift register(s))
      W   width of shift register(s)
      M   # entries in 2nd level (# of counters, or other FSM)
      X   (yes-1/no-0) xor history and address for 2nd level index
    Sample predictors:
      GAg     : 1, W, 2^W, 0
      GAp     : 1, W, M (M > 2^W), 0
      PAg     : N, W, 2^W, 0
      PAp     : N, W, M (M == 2^(N+W)), 0
      gshare  : 1, W, 2^W, 1
  Predictor `comb' combines a bimodal and a 2-level predictor.

  The cache config parameter <config> has the following format:

    <name>:<nsets>:<bsize>:<assoc>:<repl>

    <name>   - name of the cache being defined
    <nsets>  - number of sets in the cache
    <bsize>  - block size of the cache
    <assoc>  - associativity of the cache
    <repl>   - block replacement strategy, 'l'-LRU, 'f'-FIFO, 'r'-random

    Examples:   -cache:dl1 dl1:4096:32:1:l
                -dtlb dtlb:128:4096:32:r

  Cache levels can be unified by pointing a level of the instruction cache
  hierarchy at the data cache hiearchy using the "dl1" and "dl2" cache
  configuration arguments.  Most sensible combinations are supported, e.g.,

    A unified l2 cache (il2 is pointed at dl2):
      -cache:il1 il1:128:64:1:l -cache:il2 dl2
      -cache:dl1 dl1:256:32:1:l -cache:dl2 ul2:1024:64:2:l

    Or, a fully unified cache hierarchy (il1 pointed at dl1):
      -cache:il1 dl1
      -cache:dl1 ul1:256:32:1:l -cache:dl2 ul2:1024:64:2:l



sim: ** starting performance simulation **

sim: ** simulation statistics **
sim_num_insn              100000000 # total number of instructions committed
sim_num_refs               49286917 # total number of loads and stores committed
sim_num_loads              29859238 # total number of loads committed
sim_num_stores         19427679.0000 # total number of stores committed
sim_num_branches           11155385 # total number of branches committed
sim_elapsed_time                182 # total simulation time in seconds
sim_inst_rate           549450.5495 # simulation speed (in insts/sec)
sim_total_insn            178600834 # total number of instructions executed
sim_total_refs             90286293 # total number of loads and stores executed
sim_total_loads            51685325 # total number of loads executed
sim_total_stores       38600968.0000 # total number of stores executed
sim_total_branches         20263552 # total number of branches executed
sim_cycle                  65104455 # total simulation time in cycles
sim_IPC                      1.5360 # instructions per cycle
sim_CPI                      0.6510 # cycles per instruction
sim_exec_BW                  2.7433 # total instructions (mis-spec + committed) per cycle
sim_IPB                      8.9643 # instruction per branch
IFQ_count                 370661208 # cumulative IFQ occupancy
IFQ_fcount                 15201988 # cumulative IFQ full count
ifq_occupancy                5.6933 # avg IFQ occupancy (insn's)
ifq_rate                     2.7433 # avg IFQ dispatch rate (insn/cycle)
ifq_latency                  2.0754 # avg IFQ occupant latency (cycle's)
ifq_full                     0.2335 # fraction of time (cycle's) IFQ was full
RUU_count                1574766343 # cumulative RUU occupancy
RUU_fcount                 14461888 # cumulative RUU full count
ruu_occupancy               24.1883 # avg RUU occupancy (insn's)
ruu_rate                     2.7433 # avg RUU dispatch rate (insn/cycle)
ruu_latency                  8.8172 # avg RUU occupant latency (cycle's)
ruu_full                     0.2221 # fraction of time (cycle's) RUU was full
LSQ_count                 762840978 # cumulative LSQ occupancy
LSQ_fcount                        0 # cumulative LSQ full count
lsq_occupancy               11.7172 # avg LSQ occupancy (insn's)
lsq_rate                     2.7433 # avg LSQ dispatch rate (insn/cycle)
lsq_latency                  4.2712 # avg LSQ occupant latency (cycle's)
lsq_full                     0.0000 # fraction of time (cycle's) LSQ was full
sim_slip                 1866780575 # total number of slip cycles
avg_sim_slip                18.6678 # the average slip between issue and retirement
bpred_2lev.lookups         22719994 # total number of bpred lookups
bpred_2lev.updates         11155383 # total number of updates
bpred_2lev.addr_hits        9062754 # total number of address-predicted hits
bpred_2lev.dir_hits         9892985 # total number of direction-predicted hits (includes addr-hits)
bpred_2lev.misses           1262398 # total number of misses
bpred_2lev.jr_hits          1795899 # total number of address-predicted hits for JR's
bpred_2lev.jr_seen          2623829 # total number of JR's seen
bpred_2lev.jr_non_ras_hits.PP       445957 # total number of address-predicted hits for non-RAS JR's
bpred_2lev.jr_non_ras_seen.PP       619392 # total number of non-RAS JR's seen
bpred_2lev.bpred_addr_rate    0.8124 # branch address-prediction rate (i.e., addr-hits/updates)
bpred_2lev.bpred_dir_rate    0.8868 # branch direction-prediction rate (i.e., all-hits/updates)
bpred_2lev.bpred_jr_rate    0.6845 # JR address-prediction rate (i.e., JR addr-hits/JRs seen)
bpred_2lev.bpred_jr_non_ras_rate.PP    0.7200 # non-RAS JR addr-pred rate (ie, non-RAS JR hits/JRs seen)
bpred_2lev.retstack_pushes      3660323 # total number of address pushed onto ret-addr stack
bpred_2lev.retstack_pops      3793439 # total number of address popped off of ret-addr stack
bpred_2lev.used_ras.PP      2004437 # total number of RAS predictions used
bpred_2lev.ras_hits.PP      1349942 # total number of RAS hits
bpred_2lev.ras_rate.PP    0.6735 # RAS prediction rate (i.e., RAS hits/used RAS)
il1.accesses              201604116 # total number of accesses
il1.hits                  200685123 # total number of hits
il1.misses                   918993 # total number of misses
il1.replacements             918737 # total number of replacements
il1.writebacks                    0 # total number of writebacks
il1.invalidations                 0 # total number of invalidations
il1.miss_rate                0.0046 # miss rate (i.e., misses/ref)
il1.repl_rate                0.0046 # replacement rate (i.e., repls/ref)
il1.wb_rate                  0.0000 # writeback rate (i.e., wrbks/ref)
il1.inv_rate                 0.0000 # invalidation rate (i.e., invs/ref)
dl1.accesses               50665156 # total number of accesses
dl1.hits                   50088390 # total number of hits
dl1.misses                   576766 # total number of misses
dl1.replacements             576510 # total number of replacements
dl1.writebacks               188714 # total number of writebacks
dl1.invalidations                 0 # total number of invalidations
dl1.miss_rate                0.0114 # miss rate (i.e., misses/ref)
dl1.repl_rate                0.0114 # replacement rate (i.e., repls/ref)
dl1.wb_rate                  0.0037 # writeback rate (i.e., wrbks/ref)
dl1.inv_rate                 0.0000 # invalidation rate (i.e., invs/ref)
dl2.accesses                1684473 # total number of accesses
dl2.hits                    1676310 # total number of hits
dl2.misses                     8163 # total number of misses
dl2.replacements               6115 # total number of replacements
dl2.writebacks                 2557 # total number of writebacks
dl2.invalidations                 0 # total number of invalidations
dl2.miss_rate                0.0048 # miss rate (i.e., misses/ref)
dl2.repl_rate                0.0036 # replacement rate (i.e., repls/ref)
dl2.wb_rate                  0.0015 # writeback rate (i.e., wrbks/ref)
dl2.inv_rate                 0.0000 # invalidation rate (i.e., invs/ref)
itlb.accesses             201604116 # total number of accesses
itlb.hits                 201603853 # total number of hits
itlb.misses                     263 # total number of misses
itlb.replacements               199 # total number of replacements
itlb.writebacks                   0 # total number of writebacks
itlb.invalidations                0 # total number of invalidations
itlb.miss_rate               0.0000 # miss rate (i.e., misses/ref)
itlb.repl_rate               0.0000 # replacement rate (i.e., repls/ref)
itlb.wb_rate                 0.0000 # writeback rate (i.e., wrbks/ref)
itlb.inv_rate                0.0000 # invalidation rate (i.e., invs/ref)
dtlb.accesses              53465200 # total number of accesses
dtlb.hits                  53465085 # total number of hits
dtlb.misses                     115 # total number of misses
dtlb.replacements                 8 # total number of replacements
dtlb.writebacks                   0 # total number of writebacks
dtlb.invalidations                0 # total number of invalidations
dtlb.miss_rate               0.0000 # miss rate (i.e., misses/ref)
dtlb.repl_rate               0.0000 # replacement rate (i.e., repls/ref)
dtlb.wb_rate                 0.0000 # writeback rate (i.e., wrbks/ref)
dtlb.inv_rate                0.0000 # invalidation rate (i.e., invs/ref)
rename_power           212938346.5161 # total power usage of rename unit
bpred_power            202875268.8652 # total power usage of bpred unit
window_power           2813556056.6444 # total power usage of instruction window
lsq_power              607474831.7668 # total power usage of load/store queue
regfile_power          1636644141.9080 # total power usage of arch. regfile
icache_power           197439949.2423 # total power usage of icache
dcache_power           838401898.9674 # total power usage of dcache
dcache2_power          202017611.4749 # total power usage of dcache2
alu_power              2162914551.4394 # total power usage of alu
falu_power             1859519297.6264 # total power usage of falu
resultbus_power        2039599928.9725 # total power usage of resultbus
clock_power            4027673744.2440 # total power usage of clock
avg_rename_power             3.2707 # avg power usage of rename unit
avg_bpred_power              3.1162 # avg power usage of bpred unit
avg_window_power            43.2160 # avg power usage of instruction window
avg_lsq_power                9.3308 # avg power usage of lsq
avg_regfile_power           25.1387 # avg power usage of arch. regfile
avg_icache_power             3.0327 # avg power usage of icache
avg_dcache_power            12.8778 # avg power usage of dcache
avg_dcache2_power            3.1030 # avg power usage of dcache2
avg_alu_power               33.2222 # avg power usage of alu
avg_falu_power              28.5621 # avg power usage of falu
avg_resultbus_power         31.3281 # avg power usage of resultbus
avg_clock_power             61.8648 # avg power usage of clock
fetch_stage_power      400315218.1075 # total power usage of fetch stage
dispatch_stage_power   212938346.5161 # total power usage of dispatch stage
issue_stage_power      8663964879.2653 # total power usage of issue stage
avg_fetch_power              6.1488 # average power of fetch unit per cycle
avg_dispatch_power           3.2707 # average power of dispatch unit per cycle
avg_issue_power            133.0779 # average power of issue unit per cycle
total_power            14941536330.0408 # total power per cycle
avg_total_power_cycle      229.5010 # average total power per cycle
avg_total_power_cycle_nofp_nod2     197.8359 # average total power per cycle
avg_total_power_insn        83.6588 # average total power per insn
avg_total_power_insn_nofp_nod2      72.1161 # average total power per insn
rename_power_cc1       80794263.5735 # total power usage of rename unit_cc1
bpred_power_cc1        28215837.5711 # total power usage of bpred unit_cc1
window_power_cc1       1310002045.5849 # total power usage of instruction window_cc1
lsq_power_cc1          138669285.1348 # total power usage of lsq_cc1
regfile_power_cc1      619042593.6377 # total power usage of arch. regfile_cc1
icache_power_cc1       83224393.5769 # total power usage of icache_cc1
dcache_power_cc1       280339116.3392 # total power usage of dcache_cc1
dcache2_power_cc1      4459844.1278 # total power usage of dcache2_cc1
alu_power_cc1          377118294.5472 # total power usage of alu_cc1
resultbus_power_cc1    873443570.5280 # total power usage of resultbus_cc1
clock_power_cc1        1426688540.6580 # total power usage of clock_cc1
avg_rename_power_cc1         1.2410 # avg power usage of rename unit_cc1
avg_bpred_power_cc1          0.4334 # avg power usage of bpred unit_cc1
avg_window_power_cc1        20.1215 # avg power usage of instruction window_cc1
avg_lsq_power_cc1            2.1300 # avg power usage of lsq_cc1
avg_regfile_power_cc1        9.5085 # avg power usage of arch. regfile_cc1
avg_icache_power_cc1         1.2783 # avg power usage of icache_cc1
avg_dcache_power_cc1         4.3060 # avg power usage of dcache_cc1
avg_dcache2_power_cc1        0.0685 # avg power usage of dcache2_cc1
avg_alu_power_cc1            5.7925 # avg power usage of alu_cc1
avg_resultbus_power_cc1      13.4160 # avg power usage of resultbus_cc1
avg_clock_power_cc1         21.9138 # avg power usage of clock_cc1
fetch_stage_power_cc1  111440231.1480 # total power usage of fetch stage_cc1
dispatch_stage_power_cc1 80794263.5735 # total power usage of dispatch stage_cc1
issue_stage_power_cc1  2984032156.2618 # total power usage of issue stage_cc1
avg_fetch_power_cc1          1.7117 # average power of fetch unit per cycle_cc1
avg_dispatch_power_cc1       1.2410 # average power of dispatch unit per cycle_cc1
avg_issue_power_cc1         45.8345 # average power of issue unit per cycle_cc1
total_power_cycle_cc1  5221997785.2790 # total power per cycle_cc1
avg_total_power_cycle_cc1      80.2095 # average total power per cycle_cc1
avg_total_power_insn_cc1      29.2384 # average total power per insn_cc1
rename_power_cc2       36509565.9790 # total power usage of rename unit_cc2
bpred_power_cc2        17380925.2192 # total power usage of bpred unit_cc2
window_power_cc2       505400682.3295 # total power usage of instruction window_cc2
lsq_power_cc2          68148572.5131 # total power usage of lsq_cc2
regfile_power_cc2      70630628.3580 # total power usage of arch. regfile_cc2
icache_power_cc2       83224393.5769 # total power usage of icache_cc2
dcache_power_cc2       163113887.2895 # total power usage of dcache_cc2
dcache2_power_cc2      1306720.1481 # total power usage of dcache2_cc2
alu_power_cc2          174256822.2274 # total power usage of alu_cc2
resultbus_power_cc2    253596228.8922 # total power usage of resultbus_cc2
clock_power_cc2        506325497.8218 # total power usage of clock_cc2
avg_rename_power_cc2         0.5608 # avg power usage of rename unit_cc2
avg_bpred_power_cc2          0.2670 # avg power usage of bpred unit_cc2
avg_window_power_cc2         7.7629 # avg power usage of instruction window_cc2
avg_lsq_power_cc2            1.0468 # avg power usage of instruction lsq_cc2
avg_regfile_power_cc2        1.0849 # avg power usage of arch. regfile_cc2
avg_icache_power_cc2         1.2783 # avg power usage of icache_cc2
avg_dcache_power_cc2         2.5054 # avg power usage of dcache_cc2
avg_dcache2_power_cc2        0.0201 # avg power usage of dcache2_cc2
avg_alu_power_cc2            2.6766 # avg power usage of alu_cc2
avg_resultbus_power_cc2       3.8952 # avg power usage of resultbus_cc2
avg_clock_power_cc2          7.7771 # avg power usage of clock_cc2
fetch_stage_power_cc2  100605318.7961 # total power usage of fetch stage_cc2
dispatch_stage_power_cc2 36509565.9790 # total power usage of dispatch stage_cc2
issue_stage_power_cc2  1165822913.3999 # total power usage of issue stage_cc2
avg_fetch_power_cc2          1.5453 # average power of fetch unit per cycle_cc2
avg_dispatch_power_cc2       0.5608 # average power of dispatch unit per cycle_cc2
avg_issue_power_cc2         17.9070 # average power of issue unit per cycle_cc2
total_power_cycle_cc2  1879893924.3547 # total power per cycle_cc2
avg_total_power_cycle_cc2      28.8750 # average total power per cycle_cc2
avg_total_power_insn_cc2      10.5257 # average total power per insn_cc2
rename_power_cc3       49723974.3315 # total power usage of rename unit_cc3
bpred_power_cc3        34977678.4911 # total power usage of bpred unit_cc3
window_power_cc3       638649156.1983 # total power usage of instruction window_cc3
lsq_power_cc3          114325899.7940 # total power usage of lsq_cc3
regfile_power_cc3      163597326.2294 # total power usage of arch. regfile_cc3
icache_power_cc3       94645949.2229 # total power usage of icache_cc3
dcache_power_cc3       219648635.5111 # total power usage of dcache_cc3
dcache2_power_cc3      21062568.9449 # total power usage of dcache2_cc3
alu_power_cc3          352836447.5587 # total power usage of alu_cc3
resultbus_power_cc3    364388907.1077 # total power usage of resultbus_cc3
clock_power_cc3        754670360.0609 # total power usage of clock_cc3
avg_rename_power_cc3         0.7638 # avg power usage of rename unit_cc3
avg_bpred_power_cc3          0.5373 # avg power usage of bpred unit_cc3
avg_window_power_cc3         9.8096 # avg power usage of instruction window_cc3
avg_lsq_power_cc3            1.7560 # avg power usage of instruction lsq_cc3
avg_regfile_power_cc3        2.5128 # avg power usage of arch. regfile_cc3
avg_icache_power_cc3         1.4538 # avg power usage of icache_cc3
avg_dcache_power_cc3         3.3738 # avg power usage of dcache_cc3
avg_dcache2_power_cc3        0.3235 # avg power usage of dcache2_cc3
avg_alu_power_cc3            5.4195 # avg power usage of alu_cc3
avg_resultbus_power_cc3       5.5970 # avg power usage of resultbus_cc3
avg_clock_power_cc3         11.5917 # avg power usage of clock_cc3
fetch_stage_power_cc3  129623627.7140 # total power usage of fetch stage_cc3
dispatch_stage_power_cc3 49723974.3315 # total power usage of dispatch stage_cc3
issue_stage_power_cc3  1710911615.1148 # total power usage of issue stage_cc3
avg_fetch_power_cc3          1.9910 # average power of fetch unit per cycle_cc3
avg_dispatch_power_cc3       0.7638 # average power of dispatch unit per cycle_cc3
avg_issue_power_cc3         26.2795 # average power of issue unit per cycle_cc3
total_power_cycle_cc3  2808526903.4507 # total power per cycle_cc3
avg_total_power_cycle_cc3      43.1388 # average total power per cycle_cc3
avg_total_power_insn_cc3      15.7252 # average total power per insn_cc3
total_rename_access       178600834 # total number accesses of rename unit
total_bpred_access         11155383 # total number accesses of bpred unit
total_window_access       511434896 # total number accesses of instruction window
total_lsq_access           58109609 # total number accesses of load/store queue
total_regfile_access      155769909 # total number accesses of arch. regfile
total_icache_access       202246546 # total number accesses of icache
total_dcache_access        50665156 # total number accesses of dcache
total_dcache2_access        1684473 # total number accesses of dcache2
total_alu_access          118497821 # total number accesses of alu
total_resultbus_access    138152013 # total number accesses of resultbus
avg_rename_access            2.7433 # avg number accesses of rename unit
avg_bpred_access             0.1713 # avg number accesses of bpred unit
avg_window_access            7.8556 # avg number accesses of instruction window
avg_lsq_access               0.8926 # avg number accesses of lsq
avg_regfile_access           2.3926 # avg number accesses of arch. regfile
avg_icache_access            3.1065 # avg number accesses of icache
avg_dcache_access            0.7782 # avg number accesses of dcache
avg_dcache2_access           0.0259 # avg number accesses of dcache2
avg_alu_access               1.8201 # avg number accesses of alu
avg_resultbus_access         2.1220 # avg number accesses of resultbus
max_rename_access                16 # max number accesses of rename unit
max_bpred_access                  6 # max number accesses of bpred unit
max_window_access                53 # max number accesses of instruction window
max_lsq_access                   16 # max number accesses of load/store queue
max_regfile_access               40 # max number accesses of arch. regfile
max_icache_access                16 # max number accesses of icache
max_dcache_access                 8 # max number accesses of dcache
max_dcache2_access                9 # max number accesses of dcache2
max_alu_access                   13 # max number accesses of alu
max_resultbus_access             16 # max number accesses of resultbus
max_cycle_power_cc1        191.2321 # maximum cycle power usage of cc1
max_cycle_power_cc2        136.9563 # maximum cycle power usage of cc2
max_cycle_power_cc3        141.0842 # maximum cycle power usage of cc3
sim_invalid_addrs                 0 # total non-speculative bogus addresses seen (debug var)
ld_text_base           0x0120000000 # program text (code) segment base
ld_text_size                 794624 # program text (code) size in bytes
ld_data_base           0x0140000000 # program initialized data segment base
ld_data_size                 216592 # program init'ed `.data' and uninit'ed `.bss' size in bytes
ld_stack_base          0x011ff9b000 # program stack segment base (highest address in stack)
ld_stack_size                 16384 # program initial stack size
ld_prog_entry          0x012002d410 # program entry point (initial PC)
ld_environ_base        0x011ff97000 # program environment base address address
ld_target_big_endian              0 # target executable endian-ness, non-zero if big endian
mem.page_count                  140 # total number of pages allocated
mem.page_mem                  1120k # total size of memory pages allocated
mem.ptab_misses              198214 # total first level page table misses
mem.ptab_accesses        1141506611 # total page table accesses
mem.ptab_miss_rate           0.0002 # first level page table miss rate

