sim-outorder: SimpleScalar/Alpha Tool Set version 3.0 of August, 2003.
Copyright (c) 1994-2003 by Todd M. Austin, Ph.D. and SimpleScalar, LLC.
All Rights Reserved. This version of SimpleScalar is licensed for academic
non-commercial use.  No portion of this work may be used by any commercial
entity, or for any commercial purpose, without the prior written permission
of SimpleScalar, LLC (info@simplescalar.com).


Processor Parameters:
Issue Width: 16
Window Size: 64
Number of Virtual Registers: 32
Number of Physical Registers: 64
Datapath Width: 64
Total Power Consumption: 231.501
Branch Predictor Power Consumption: 3.11615  (1.36%)
 branch target buffer power (W): 2.49493
 local predict power (W): 0.354432
 global predict power (W): 0.0996078
 chooser power (W): 0.0702439
 RAS power (W): 0.0969383
Rename Logic Power Consumption: 3.27072  (1.43%)
 Instruction Decode Power (W): 0.0639661
 RAT decode_power (W): 0.454058
 RAT wordline_power (W): 0.227603
 RAT bitline_power (W): 2.30694
 DCL Comparators (W): 0.218151
Instruction Window Power Consumption: 43.216  (18.8%)
 tagdrive (W): 2.9395
 tagmatch (W): 0.989695
 Selection Logic (W): 0.225484
 decode_power (W): 0.976583
 wordline_power (W): 1.0557
 bitline_power (W): 37.0291
Load/Store Queue Power Consumption: 9.33077  (4.07%)
 tagdrive (W): 4.52311
 tagmatch (W): 1.71883
 decode_power (W): 0.162764
 wordline_power (W): 0.0433172
 bitline_power (W): 2.88275
Arch. Register File Power Consumption: 25.1387  (11%)
 decode_power (W): 0.454058
 wordline_power (W): 1.0557
 bitline_power (W): 23.629
Result Bus Power Consumption: 31.3281  (13.7%)
Total Clock Power: 61.8648  (27%)
Int ALU Power: 4.66013  (2.03%)
FP ALU Power: 28.5621  (12.4%)
Instruction Cache Power Consumption: 2.76773  (1.21%)
 decode_power (W): 0.151353
 wordline_power (W): 0.180479
 bitline_power (W): 1.42251
 senseamp_power (W): 0.768
 tagarray_power (W): 0.245382
Itlb_power (W): 0.264936 (0.115%)
Data Cache Power Consumption: 11.0709  (4.82%)
 decode_power (W): 0.60541
 wordline_power (W): 0.721917
 bitline_power (W): 5.69006
 senseamp_power (W): 3.072
 tagarray_power (W): 0.981529
Dtlb_power (W): 1.80688 (0.787%)
Level 2 Cache Power Consumption: 3.10298 (1.35%)
 decode_power (W): 0.19487
 wordline_power (W): 0.0430878
 bitline_power (W): 1.77274
 senseamp_power (W): 0.192
 tagarray_power (W): 0.900275
sim: loading EIO file: ../benchmarks/255.vortex.three-ref.eio.gz
sim: command line: ./sim-outorder -config ../configs/current.config ../benchmarks/255.vortex.three-ref.eio.gz 

sim: simulation started @ Tue Nov 24 13:08:22 2015, options follow:

sim-outorder: This simulator implements a very detailed out-of-order issue
superscalar processor with a two-level memory system and speculative
execution support.  This simulator is a performance simulator, tracking the
latency of all pipeline operations.

# -config                     # load configuration from a file
# -dumpconfig                 # dump configuration to a file
# -h                    false # print help message    
# -v                    false # verbose operation     
# -d                    false # enable debug message  
# -i                    false # start in Dlite debugger
-seed                       1 # random number generator seed (0 for timer seed)
# -q                    false # initialize and terminate immediately
# -chkpt               <null> # restore EIO trace execution from <fname>
# -redir:sim     ../results/28_23_bp/255.vortex.three-ref.eio.gz.out # redirect simulator output to file (non-interactive only)
# -redir:prog       /dev/null # redirect simulated program output to file
-nice                       0 # simulator scheduling priority
-freq            600000000.0000 # frequency             
-max:inst           100000000 # maximum number of inst's to execute
-fastfwd                    0 # number of insts skipped before timing starts
# -ptrace              <null> # generate pipetrace, i.e., <fname|stdout|stderr> <range>
-fetch:ifqsize             16 # instruction fetch queue size (in insts)
-fetch:mplat               15 # extra branch mis-prediction latency
-fetch:speed                1 # speed of front-end of machine relative to execution core
-bpred                   2lev # branch predictor type {nottaken|taken|perfect|bimod|2lev|comb}
-bpred:bimod     2048 # bimodal predictor config (<table size>)
-bpred:2lev      1 8192 8 0 # 2-level predictor config (<l1size> <l2size> <hist_size> <xor>)
-bpred:comb      1024 # combining predictor config (<meta_table_size>)
-bpred:ras                  8 # return address stack size (0 for no return stack)
-bpred:btb       512 4 # BTB config (<num_sets> <associativity>)
# -bpred:spec_update       <null> # speculative predictors update in {ID|WB} (default non-spec)
-decode:width              16 # instruction decode B/W (insts/cycle)
-issue:width               16 # instruction issue B/W (insts/cycle)
-issue:inorder          false # run pipeline with in-order issue
-issue:wrongpath         true # issue instructions down wrong execution paths
-commit:width              16 # instruction commit B/W (insts/cycle)
-ruu:size                  64 # register update unit (RUU) size
-lsq:size                  64 # load/store queue (LSQ) size
-cache:dl1       dl1:32:64:8:f # l1 data cache config, i.e., {<config>|none}
-cache:dl1lat               1 # l1 data cache hit latency (in cycles)
-cache:dl2       dl2:256:64:8:f # l2 data cache config, i.e., {<config>|none}
-cache:dl2lat               2 # l2 data cache hit latency (in cycles)
-cache:il1       il1:32:64:8:f # l1 inst cache config, i.e., {<config>|dl1|dl2|none}
-cache:il1lat               1 # l1 instruction cache hit latency (in cycles)
-cache:il2                dl2 # l2 instruction cache config, i.e., {<config>|dl2|none}
-cache:il2lat               2 # l2 instruction cache hit latency (in cycles)
-cache:flush            false # flush caches on system calls
-cache:icompress        false # convert 64-bit inst addresses to 32-bit inst equivalents
-mem:lat         103 1 # memory access latency (<first_chunk> <inter_chunk>)
-mem:width                  8 # memory access bus width (in bytes)
-tlb:itlb        itlb:16:4096:4:l # instruction TLB config, i.e., {<config>|none}
-tlb:dtlb        dtlb:32:4096:4:l # data TLB config, i.e., {<config>|none}
-tlb:lat                   30 # inst/data TLB miss latency (in cycles)
-res:ialu                   4 # total number of integer ALU's available
-res:imult                  2 # total number of integer multiplier/dividers available
-res:memport                4 # total number of memory system ports available (to CPU)
-res:fpalu                  8 # total number of floating point ALU's available
-res:fpmult                 2 # total number of floating point multiplier/dividers available
# -pcstat              <null> # profile stat(s) against text addr's (mult uses ok)
-bugcompat              false # operate in backward-compatible bugs mode (for testing only)

  Pipetrace range arguments are formatted as follows:

    {{@|#}<start>}:{{@|#|+}<end>}

  Both ends of the range are optional, if neither are specified, the entire
  execution is traced.  Ranges that start with a `@' designate an address
  range to be traced, those that start with an `#' designate a cycle count
  range.  All other range values represent an instruction count range.  The
  second argument, if specified with a `+', indicates a value relative
  to the first argument, e.g., 1000:+100 == 1000:1100.  Program symbols may
  be used in all contexts.

    Examples:   -ptrace FOO.trc #0:#1000
                -ptrace BAR.trc @2000:
                -ptrace BLAH.trc :1500
                -ptrace UXXE.trc :
                -ptrace FOOBAR.trc @main:+278

  Branch predictor configuration examples for 2-level predictor:
    Configurations:   N, M, W, X
      N   # entries in first level (# of shift register(s))
      W   width of shift register(s)
      M   # entries in 2nd level (# of counters, or other FSM)
      X   (yes-1/no-0) xor history and address for 2nd level index
    Sample predictors:
      GAg     : 1, W, 2^W, 0
      GAp     : 1, W, M (M > 2^W), 0
      PAg     : N, W, 2^W, 0
      PAp     : N, W, M (M == 2^(N+W)), 0
      gshare  : 1, W, 2^W, 1
  Predictor `comb' combines a bimodal and a 2-level predictor.

  The cache config parameter <config> has the following format:

    <name>:<nsets>:<bsize>:<assoc>:<repl>

    <name>   - name of the cache being defined
    <nsets>  - number of sets in the cache
    <bsize>  - block size of the cache
    <assoc>  - associativity of the cache
    <repl>   - block replacement strategy, 'l'-LRU, 'f'-FIFO, 'r'-random

    Examples:   -cache:dl1 dl1:4096:32:1:l
                -dtlb dtlb:128:4096:32:r

  Cache levels can be unified by pointing a level of the instruction cache
  hierarchy at the data cache hiearchy using the "dl1" and "dl2" cache
  configuration arguments.  Most sensible combinations are supported, e.g.,

    A unified l2 cache (il2 is pointed at dl2):
      -cache:il1 il1:128:64:1:l -cache:il2 dl2
      -cache:dl1 dl1:256:32:1:l -cache:dl2 ul2:1024:64:2:l

    Or, a fully unified cache hierarchy (il1 pointed at dl1):
      -cache:il1 dl1
      -cache:dl1 ul1:256:32:1:l -cache:dl2 ul2:1024:64:2:l



sim: ** starting performance simulation **

sim: ** simulation statistics **
sim_num_insn              100000002 # total number of instructions committed
sim_num_refs               44791264 # total number of loads and stores committed
sim_num_loads              27919557 # total number of loads committed
sim_num_stores         16871707.0000 # total number of stores committed
sim_num_branches           15797762 # total number of branches committed
sim_elapsed_time                166 # total simulation time in seconds
sim_inst_rate           602409.6506 # simulation speed (in insts/sec)
sim_total_insn            117599174 # total number of instructions executed
sim_total_refs             52320819 # total number of loads and stores executed
sim_total_loads            32375885 # total number of loads executed
sim_total_stores       19944934.0000 # total number of stores executed
sim_total_branches         18922681 # total number of branches executed
sim_cycle                 109538713 # total simulation time in cycles
sim_IPC                      0.9129 # instructions per cycle
sim_CPI                      1.0954 # cycles per instruction
sim_exec_BW                  1.0736 # total instructions (mis-spec + committed) per cycle
sim_IPB                      6.3300 # instruction per branch
IFQ_count                 523036507 # cumulative IFQ occupancy
IFQ_fcount                 26609761 # cumulative IFQ full count
ifq_occupancy                4.7749 # avg IFQ occupancy (insn's)
ifq_rate                     1.0736 # avg IFQ dispatch rate (insn/cycle)
ifq_latency                  4.4476 # avg IFQ occupant latency (cycle's)
ifq_full                     0.2429 # fraction of time (cycle's) IFQ was full
RUU_count                2758202837 # cumulative RUU occupancy
RUU_fcount                 29379823 # cumulative RUU full count
ruu_occupancy               25.1802 # avg RUU occupancy (insn's)
ruu_rate                     1.0736 # avg RUU dispatch rate (insn/cycle)
ruu_latency                 23.4543 # avg RUU occupant latency (cycle's)
ruu_full                     0.2682 # fraction of time (cycle's) RUU was full
LSQ_count                1214287162 # cumulative LSQ occupancy
LSQ_fcount                        0 # cumulative LSQ full count
lsq_occupancy               11.0855 # avg LSQ occupancy (insn's)
lsq_rate                     1.0736 # avg LSQ dispatch rate (insn/cycle)
lsq_latency                 10.3256 # avg LSQ occupant latency (cycle's)
lsq_full                     0.0000 # fraction of time (cycle's) LSQ was full
sim_slip                 3637052147 # total number of slip cycles
avg_sim_slip                36.3705 # the average slip between issue and retirement
bpred_2lev.lookups         19452970 # total number of bpred lookups
bpred_2lev.updates         15797755 # total number of updates
bpred_2lev.addr_hits       14323297 # total number of address-predicted hits
bpred_2lev.dir_hits        14698801 # total number of direction-predicted hits (includes addr-hits)
bpred_2lev.misses           1098954 # total number of misses
bpred_2lev.jr_hits          1640609 # total number of address-predicted hits for JR's
bpred_2lev.jr_seen          1959575 # total number of JR's seen
bpred_2lev.jr_non_ras_hits.PP        22420 # total number of address-predicted hits for non-RAS JR's
bpred_2lev.jr_non_ras_seen.PP        25256 # total number of non-RAS JR's seen
bpred_2lev.bpred_addr_rate    0.9067 # branch address-prediction rate (i.e., addr-hits/updates)
bpred_2lev.bpred_dir_rate    0.9304 # branch direction-prediction rate (i.e., all-hits/updates)
bpred_2lev.bpred_jr_rate    0.8372 # JR address-prediction rate (i.e., JR addr-hits/JRs seen)
bpred_2lev.bpred_jr_non_ras_rate.PP    0.8877 # non-RAS JR addr-pred rate (ie, non-RAS JR hits/JRs seen)
bpred_2lev.retstack_pushes      2566778 # total number of address pushed onto ret-addr stack
bpred_2lev.retstack_pops      2327549 # total number of address popped off of ret-addr stack
bpred_2lev.used_ras.PP      1934319 # total number of RAS predictions used
bpred_2lev.ras_hits.PP      1618189 # total number of RAS hits
bpred_2lev.ras_rate.PP    0.8366 # RAS prediction rate (i.e., RAS hits/used RAS)
il1.accesses              123042235 # total number of accesses
il1.hits                  120764049 # total number of hits
il1.misses                  2278186 # total number of misses
il1.replacements            2277930 # total number of replacements
il1.writebacks                    0 # total number of writebacks
il1.invalidations                 0 # total number of invalidations
il1.miss_rate                0.0185 # miss rate (i.e., misses/ref)
il1.repl_rate                0.0185 # replacement rate (i.e., repls/ref)
il1.wb_rate                  0.0000 # writeback rate (i.e., wrbks/ref)
il1.inv_rate                 0.0000 # invalidation rate (i.e., invs/ref)
dl1.accesses               45078428 # total number of accesses
dl1.hits                   43966863 # total number of hits
dl1.misses                  1111565 # total number of misses
dl1.replacements            1111309 # total number of replacements
dl1.writebacks               296297 # total number of writebacks
dl1.invalidations                 0 # total number of invalidations
dl1.miss_rate                0.0247 # miss rate (i.e., misses/ref)
dl1.repl_rate                0.0247 # replacement rate (i.e., repls/ref)
dl1.wb_rate                  0.0066 # writeback rate (i.e., wrbks/ref)
dl1.inv_rate                 0.0000 # invalidation rate (i.e., invs/ref)
dl2.accesses                3686048 # total number of accesses
dl2.hits                    2866913 # total number of hits
dl2.misses                   819135 # total number of misses
dl2.replacements             817087 # total number of replacements
dl2.writebacks               140525 # total number of writebacks
dl2.invalidations                 0 # total number of invalidations
dl2.miss_rate                0.2222 # miss rate (i.e., misses/ref)
dl2.repl_rate                0.2217 # replacement rate (i.e., repls/ref)
dl2.wb_rate                  0.0381 # writeback rate (i.e., wrbks/ref)
dl2.inv_rate                 0.0000 # invalidation rate (i.e., invs/ref)
itlb.accesses             123042235 # total number of accesses
itlb.hits                 122976539 # total number of hits
itlb.misses                   65696 # total number of misses
itlb.replacements             65632 # total number of replacements
itlb.writebacks                   0 # total number of writebacks
itlb.invalidations                0 # total number of invalidations
itlb.miss_rate               0.0005 # miss rate (i.e., misses/ref)
itlb.repl_rate               0.0005 # replacement rate (i.e., repls/ref)
itlb.wb_rate                 0.0000 # writeback rate (i.e., wrbks/ref)
itlb.inv_rate                0.0000 # invalidation rate (i.e., invs/ref)
dtlb.accesses              46512372 # total number of accesses
dtlb.hits                  46258119 # total number of hits
dtlb.misses                  254253 # total number of misses
dtlb.replacements            254125 # total number of replacements
dtlb.writebacks                   0 # total number of writebacks
dtlb.invalidations                0 # total number of invalidations
dtlb.miss_rate               0.0055 # miss rate (i.e., misses/ref)
dtlb.repl_rate               0.0055 # replacement rate (i.e., repls/ref)
dtlb.wb_rate                 0.0000 # writeback rate (i.e., wrbks/ref)
dtlb.inv_rate                0.0000 # invalidation rate (i.e., invs/ref)
rename_power           358270296.8534 # total power usage of rename unit
bpred_power            341339096.1320 # total power usage of bpred unit
window_power           4733828262.7398 # total power usage of instruction window
lsq_power              1022080764.0324 # total power usage of load/store queue
regfile_power          2753665514.4339 # total power usage of arch. regfile
icache_power           332194131.8350 # total power usage of icache
dcache_power           1410617216.5942 # total power usage of dcache
dcache2_power          339896082.4923 # total power usage of dcache2
alu_power              3639119264.9518 # total power usage of alu
falu_power             3128654570.1528 # total power usage of falu
resultbus_power        3431641516.1295 # total power usage of resultbus
clock_power            6776589994.4445 # total power usage of clock
avg_rename_power             3.2707 # avg power usage of rename unit
avg_bpred_power              3.1162 # avg power usage of bpred unit
avg_window_power            43.2160 # avg power usage of instruction window
avg_lsq_power                9.3308 # avg power usage of lsq
avg_regfile_power           25.1387 # avg power usage of arch. regfile
avg_icache_power             3.0327 # avg power usage of icache
avg_dcache_power            12.8778 # avg power usage of dcache
avg_dcache2_power            3.1030 # avg power usage of dcache2
avg_alu_power               33.2222 # avg power usage of alu
avg_falu_power              28.5621 # avg power usage of falu
avg_resultbus_power         31.3281 # avg power usage of resultbus
avg_clock_power             61.8648 # avg power usage of clock
fetch_stage_power      673533227.9670 # total power usage of fetch stage
dispatch_stage_power   358270296.8534 # total power usage of dispatch stage
issue_stage_power      14577183106.9399 # total power usage of issue stage
avg_fetch_power              6.1488 # average power of fetch unit per cycle
avg_dispatch_power           3.2707 # average power of dispatch unit per cycle
avg_issue_power            133.0779 # average power of issue unit per cycle
total_power            25139242140.6387 # total power per cycle
avg_total_power_cycle      229.5010 # average total power per cycle
avg_total_power_cycle_nofp_nod2     197.8359 # average total power per cycle
avg_total_power_insn       213.7706 # average total power per insn
avg_total_power_insn_nofp_nod2     184.2759 # average total power per insn
rename_power_cc1       61662427.8291 # total power usage of rename unit_cc1
bpred_power_cc1        32321111.6668 # total power usage of bpred unit_cc1
window_power_cc1       1402354729.8643 # total power usage of instruction window_cc1
lsq_power_cc1          141265417.1728 # total power usage of lsq_cc1
regfile_power_cc1      643251258.8257 # total power usage of arch. regfile_cc1
icache_power_cc1       63074569.0113 # total power usage of icache_cc1
dcache_power_cc1       281623605.6698 # total power usage of dcache_cc1
dcache2_power_cc1      10113892.1389 # total power usage of dcache2_cc1
alu_power_cc1          154025411.5720 # total power usage of alu_cc1
resultbus_power_cc1    944025175.4636 # total power usage of resultbus_cc1
clock_power_cc1        1391805240.1873 # total power usage of clock_cc1
avg_rename_power_cc1         0.5629 # avg power usage of rename unit_cc1
avg_bpred_power_cc1          0.2951 # avg power usage of bpred unit_cc1
avg_window_power_cc1        12.8024 # avg power usage of instruction window_cc1
avg_lsq_power_cc1            1.2896 # avg power usage of lsq_cc1
avg_regfile_power_cc1        5.8724 # avg power usage of arch. regfile_cc1
avg_icache_power_cc1         0.5758 # avg power usage of icache_cc1
avg_dcache_power_cc1         2.5710 # avg power usage of dcache_cc1
avg_dcache2_power_cc1        0.0923 # avg power usage of dcache2_cc1
avg_alu_power_cc1            1.4061 # avg power usage of alu_cc1
avg_resultbus_power_cc1       8.6182 # avg power usage of resultbus_cc1
avg_clock_power_cc1         12.7061 # avg power usage of clock_cc1
fetch_stage_power_cc1  95395680.6781 # total power usage of fetch stage_cc1
dispatch_stage_power_cc1 61662427.8291 # total power usage of dispatch stage_cc1
issue_stage_power_cc1  2933408231.8814 # total power usage of issue stage_cc1
avg_fetch_power_cc1          0.8709 # average power of fetch unit per cycle_cc1
avg_dispatch_power_cc1       0.5629 # average power of dispatch unit per cycle_cc1
avg_issue_power_cc1         26.7796 # average power of issue unit per cycle_cc1
total_power_cycle_cc1  5125522839.4015 # total power per cycle_cc1
avg_total_power_cycle_cc1      46.7919 # average total power per cycle_cc1
avg_total_power_insn_cc1      43.5847 # average total power per insn_cc1
rename_power_cc2       24039612.2774 # total power usage of rename unit_cc2
bpred_power_cc2        24614089.7457 # total power usage of bpred unit_cc2
window_power_cc2       437719162.7022 # total power usage of instruction window_cc2
lsq_power_cc2          59710302.4600 # total power usage of lsq_cc2
regfile_power_cc2      56989112.8229 # total power usage of arch. regfile_cc2
icache_power_cc2       63074569.0113 # total power usage of icache_cc2
dcache_power_cc2       145127701.2407 # total power usage of dcache_cc2
dcache2_power_cc2      2859430.3313 # total power usage of dcache2_cc2
alu_power_cc2          126294650.9650 # total power usage of alu_cc2
resultbus_power_cc2    219864886.4708 # total power usage of resultbus_cc2
clock_power_cc2        432197962.4159 # total power usage of clock_cc2
avg_rename_power_cc2         0.2195 # avg power usage of rename unit_cc2
avg_bpred_power_cc2          0.2247 # avg power usage of bpred unit_cc2
avg_window_power_cc2         3.9960 # avg power usage of instruction window_cc2
avg_lsq_power_cc2            0.5451 # avg power usage of instruction lsq_cc2
avg_regfile_power_cc2        0.5203 # avg power usage of arch. regfile_cc2
avg_icache_power_cc2         0.5758 # avg power usage of icache_cc2
avg_dcache_power_cc2         1.3249 # avg power usage of dcache_cc2
avg_dcache2_power_cc2        0.0261 # avg power usage of dcache2_cc2
avg_alu_power_cc2            1.1530 # avg power usage of alu_cc2
avg_resultbus_power_cc2       2.0072 # avg power usage of resultbus_cc2
avg_clock_power_cc2          3.9456 # avg power usage of clock_cc2
fetch_stage_power_cc2  87688658.7570 # total power usage of fetch stage_cc2
dispatch_stage_power_cc2 24039612.2774 # total power usage of dispatch stage_cc2
issue_stage_power_cc2  991576134.1701 # total power usage of issue stage_cc2
avg_fetch_power_cc2          0.8005 # average power of fetch unit per cycle_cc2
avg_dispatch_power_cc2       0.2195 # average power of dispatch unit per cycle_cc2
avg_issue_power_cc2          9.0523 # average power of issue unit per cycle_cc2
total_power_cycle_cc2  1592491480.4434 # total power per cycle_cc2
avg_total_power_cycle_cc2      14.5382 # average total power per cycle_cc2
avg_total_power_insn_cc2      13.5417 # average total power per insn_cc2
rename_power_cc3       53700399.3060 # total power usage of rename unit_cc3
bpred_power_cc3        56088725.1650 # total power usage of bpred unit_cc3
window_power_cc3       755622786.4529 # total power usage of instruction window_cc3
lsq_power_cc3          147489189.1732 # total power usage of lsq_cc3
regfile_power_cc3      261840194.1517 # total power usage of arch. regfile_cc3
icache_power_cc3       89986525.5045 # total power usage of icache_cc3
dcache_power_cc3       258354264.1842 # total power usage of dcache_cc3
dcache2_power_cc3      35838100.7106 # total power usage of dcache2_cc3
alu_power_cc3          474804035.8541 # total power usage of alu_cc3
resultbus_power_cc3    462333063.8168 # total power usage of resultbus_cc3
clock_power_cc3        960536405.3421 # total power usage of clock_cc3
avg_rename_power_cc3         0.4902 # avg power usage of rename unit_cc3
avg_bpred_power_cc3          0.5120 # avg power usage of bpred unit_cc3
avg_window_power_cc3         6.8982 # avg power usage of instruction window_cc3
avg_lsq_power_cc3            1.3465 # avg power usage of instruction lsq_cc3
avg_regfile_power_cc3        2.3904 # avg power usage of arch. regfile_cc3
avg_icache_power_cc3         0.8215 # avg power usage of icache_cc3
avg_dcache_power_cc3         2.3586 # avg power usage of dcache_cc3
avg_dcache2_power_cc3        0.3272 # avg power usage of dcache2_cc3
avg_alu_power_cc3            4.3346 # avg power usage of alu_cc3
avg_resultbus_power_cc3       4.2207 # avg power usage of resultbus_cc3
avg_clock_power_cc3          8.7689 # avg power usage of clock_cc3
fetch_stage_power_cc3  146075250.6695 # total power usage of fetch stage_cc3
dispatch_stage_power_cc3 53700399.3060 # total power usage of dispatch stage_cc3
issue_stage_power_cc3  2134441440.1916 # total power usage of issue stage_cc3
avg_fetch_power_cc3          1.3335 # average power of fetch unit per cycle_cc3
avg_dispatch_power_cc3       0.4902 # average power of dispatch unit per cycle_cc3
avg_issue_power_cc3         19.4857 # average power of issue unit per cycle_cc3
total_power_cycle_cc3  3556593689.6610 # total power per cycle_cc3
avg_total_power_cycle_cc3      32.4688 # average total power per cycle_cc3
avg_total_power_insn_cc3      30.2434 # average total power per insn_cc3
total_rename_access       117599174 # total number accesses of rename unit
total_bpred_access         15797755 # total number accesses of bpred unit
total_window_access       419924817 # total number accesses of instruction window
total_lsq_access           49058231 # total number accesses of load/store queue
total_regfile_access      120209711 # total number accesses of arch. regfile
total_icache_access       125512102 # total number accesses of icache
total_dcache_access        45078428 # total number accesses of dcache
total_dcache2_access        3686048 # total number accesses of dcache2
total_alu_access          107704264 # total number accesses of alu
total_resultbus_access    119776137 # total number accesses of resultbus
avg_rename_access            1.0736 # avg number accesses of rename unit
avg_bpred_access             0.1442 # avg number accesses of bpred unit
avg_window_access            3.8336 # avg number accesses of instruction window
avg_lsq_access               0.4479 # avg number accesses of lsq
avg_regfile_access           1.0974 # avg number accesses of arch. regfile
avg_icache_access            1.1458 # avg number accesses of icache
avg_dcache_access            0.4115 # avg number accesses of dcache
avg_dcache2_access           0.0337 # avg number accesses of dcache2
avg_alu_access               0.9833 # avg number accesses of alu
avg_resultbus_access         1.0935 # avg number accesses of resultbus
max_rename_access                16 # max number accesses of rename unit
max_bpred_access                  7 # max number accesses of bpred unit
max_window_access                47 # max number accesses of instruction window
max_lsq_access                   13 # max number accesses of load/store queue
max_regfile_access               40 # max number accesses of arch. regfile
max_icache_access                16 # max number accesses of icache
max_dcache_access                 8 # max number accesses of dcache
max_dcache2_access                8 # max number accesses of dcache2
max_alu_access                    7 # max number accesses of alu
max_resultbus_access             34 # max number accesses of resultbus
max_cycle_power_cc1        173.3002 # maximum cycle power usage of cc1
max_cycle_power_cc2        100.7656 # maximum cycle power usage of cc2
max_cycle_power_cc3        114.6012 # maximum cycle power usage of cc3
sim_invalid_addrs                 0 # total non-speculative bogus addresses seen (debug var)
ld_text_base           0x0120000000 # program text (code) segment base
ld_text_size                 819200 # program text (code) size in bytes
ld_data_base           0x0140000000 # program initialized data segment base
ld_data_size                 118976 # program init'ed `.data' and uninit'ed `.bss' size in bytes
ld_stack_base          0x011ff9b000 # program stack segment base (highest address in stack)
ld_stack_size                 16384 # program initial stack size
ld_prog_entry          0x012005fcd0 # program entry point (initial PC)
ld_environ_base        0x011ff95d20 # program environment base address address
ld_target_big_endian              0 # target executable endian-ness, non-zero if big endian
mem.page_count                 8034 # total number of pages allocated
mem.page_mem                 64272k # total size of memory pages allocated
mem.ptab_misses               24321 # total first level page table misses
mem.ptab_accesses         964967614 # total page table accesses
mem.ptab_miss_rate           0.0000 # first level page table miss rate

