sim-outorder: SimpleScalar/Alpha Tool Set version 3.0 of August, 2003.
Copyright (c) 1994-2003 by Todd M. Austin, Ph.D. and SimpleScalar, LLC.
All Rights Reserved. This version of SimpleScalar is licensed for academic
non-commercial use.  No portion of this work may be used by any commercial
entity, or for any commercial purpose, without the prior written permission
of SimpleScalar, LLC (info@simplescalar.com).


Processor Parameters:
Issue Width: 16
Window Size: 64
Number of Virtual Registers: 32
Number of Physical Registers: 64
Datapath Width: 64
Total Power Consumption: 231.501
Branch Predictor Power Consumption: 3.11615  (1.36%)
 branch target buffer power (W): 2.49493
 local predict power (W): 0.354432
 global predict power (W): 0.0996078
 chooser power (W): 0.0702439
 RAS power (W): 0.0969383
Rename Logic Power Consumption: 3.27072  (1.43%)
 Instruction Decode Power (W): 0.0639661
 RAT decode_power (W): 0.454058
 RAT wordline_power (W): 0.227603
 RAT bitline_power (W): 2.30694
 DCL Comparators (W): 0.218151
Instruction Window Power Consumption: 43.216  (18.8%)
 tagdrive (W): 2.9395
 tagmatch (W): 0.989695
 Selection Logic (W): 0.225484
 decode_power (W): 0.976583
 wordline_power (W): 1.0557
 bitline_power (W): 37.0291
Load/Store Queue Power Consumption: 9.33077  (4.07%)
 tagdrive (W): 4.52311
 tagmatch (W): 1.71883
 decode_power (W): 0.162764
 wordline_power (W): 0.0433172
 bitline_power (W): 2.88275
Arch. Register File Power Consumption: 25.1387  (11%)
 decode_power (W): 0.454058
 wordline_power (W): 1.0557
 bitline_power (W): 23.629
Result Bus Power Consumption: 31.3281  (13.7%)
Total Clock Power: 61.8648  (27%)
Int ALU Power: 4.66013  (2.03%)
FP ALU Power: 28.5621  (12.4%)
Instruction Cache Power Consumption: 2.76773  (1.21%)
 decode_power (W): 0.151353
 wordline_power (W): 0.180479
 bitline_power (W): 1.42251
 senseamp_power (W): 0.768
 tagarray_power (W): 0.245382
Itlb_power (W): 0.264936 (0.115%)
Data Cache Power Consumption: 11.0709  (4.82%)
 decode_power (W): 0.60541
 wordline_power (W): 0.721917
 bitline_power (W): 5.69006
 senseamp_power (W): 3.072
 tagarray_power (W): 0.981529
Dtlb_power (W): 1.80688 (0.787%)
Level 2 Cache Power Consumption: 3.10298 (1.35%)
 decode_power (W): 0.19487
 wordline_power (W): 0.0430878
 bitline_power (W): 1.77274
 senseamp_power (W): 0.192
 tagarray_power (W): 0.900275
sim: loading EIO file: ../benchmarks/255.vortex.two-ref.eio.gz
sim: command line: ./sim-outorder -config ../configs/current.config ../benchmarks/255.vortex.two-ref.eio.gz 

sim: simulation started @ Tue Nov 24 13:08:21 2015, options follow:

sim-outorder: This simulator implements a very detailed out-of-order issue
superscalar processor with a two-level memory system and speculative
execution support.  This simulator is a performance simulator, tracking the
latency of all pipeline operations.

# -config                     # load configuration from a file
# -dumpconfig                 # dump configuration to a file
# -h                    false # print help message    
# -v                    false # verbose operation     
# -d                    false # enable debug message  
# -i                    false # start in Dlite debugger
-seed                       1 # random number generator seed (0 for timer seed)
# -q                    false # initialize and terminate immediately
# -chkpt               <null> # restore EIO trace execution from <fname>
# -redir:sim     ../results/28_23_bp/255.vortex.two-ref.eio.gz.out # redirect simulator output to file (non-interactive only)
# -redir:prog       /dev/null # redirect simulated program output to file
-nice                       0 # simulator scheduling priority
-freq            600000000.0000 # frequency             
-max:inst           100000000 # maximum number of inst's to execute
-fastfwd                    0 # number of insts skipped before timing starts
# -ptrace              <null> # generate pipetrace, i.e., <fname|stdout|stderr> <range>
-fetch:ifqsize             16 # instruction fetch queue size (in insts)
-fetch:mplat               15 # extra branch mis-prediction latency
-fetch:speed                1 # speed of front-end of machine relative to execution core
-bpred                   2lev # branch predictor type {nottaken|taken|perfect|bimod|2lev|comb}
-bpred:bimod     2048 # bimodal predictor config (<table size>)
-bpred:2lev      1 8192 8 0 # 2-level predictor config (<l1size> <l2size> <hist_size> <xor>)
-bpred:comb      1024 # combining predictor config (<meta_table_size>)
-bpred:ras                  8 # return address stack size (0 for no return stack)
-bpred:btb       512 4 # BTB config (<num_sets> <associativity>)
# -bpred:spec_update       <null> # speculative predictors update in {ID|WB} (default non-spec)
-decode:width              16 # instruction decode B/W (insts/cycle)
-issue:width               16 # instruction issue B/W (insts/cycle)
-issue:inorder          false # run pipeline with in-order issue
-issue:wrongpath         true # issue instructions down wrong execution paths
-commit:width              16 # instruction commit B/W (insts/cycle)
-ruu:size                  64 # register update unit (RUU) size
-lsq:size                  64 # load/store queue (LSQ) size
-cache:dl1       dl1:32:64:8:f # l1 data cache config, i.e., {<config>|none}
-cache:dl1lat               1 # l1 data cache hit latency (in cycles)
-cache:dl2       dl2:256:64:8:f # l2 data cache config, i.e., {<config>|none}
-cache:dl2lat               2 # l2 data cache hit latency (in cycles)
-cache:il1       il1:32:64:8:f # l1 inst cache config, i.e., {<config>|dl1|dl2|none}
-cache:il1lat               1 # l1 instruction cache hit latency (in cycles)
-cache:il2                dl2 # l2 instruction cache config, i.e., {<config>|dl2|none}
-cache:il2lat               2 # l2 instruction cache hit latency (in cycles)
-cache:flush            false # flush caches on system calls
-cache:icompress        false # convert 64-bit inst addresses to 32-bit inst equivalents
-mem:lat         103 1 # memory access latency (<first_chunk> <inter_chunk>)
-mem:width                  8 # memory access bus width (in bytes)
-tlb:itlb        itlb:16:4096:4:l # instruction TLB config, i.e., {<config>|none}
-tlb:dtlb        dtlb:32:4096:4:l # data TLB config, i.e., {<config>|none}
-tlb:lat                   30 # inst/data TLB miss latency (in cycles)
-res:ialu                   4 # total number of integer ALU's available
-res:imult                  2 # total number of integer multiplier/dividers available
-res:memport                4 # total number of memory system ports available (to CPU)
-res:fpalu                  8 # total number of floating point ALU's available
-res:fpmult                 2 # total number of floating point multiplier/dividers available
# -pcstat              <null> # profile stat(s) against text addr's (mult uses ok)
-bugcompat              false # operate in backward-compatible bugs mode (for testing only)

  Pipetrace range arguments are formatted as follows:

    {{@|#}<start>}:{{@|#|+}<end>}

  Both ends of the range are optional, if neither are specified, the entire
  execution is traced.  Ranges that start with a `@' designate an address
  range to be traced, those that start with an `#' designate a cycle count
  range.  All other range values represent an instruction count range.  The
  second argument, if specified with a `+', indicates a value relative
  to the first argument, e.g., 1000:+100 == 1000:1100.  Program symbols may
  be used in all contexts.

    Examples:   -ptrace FOO.trc #0:#1000
                -ptrace BAR.trc @2000:
                -ptrace BLAH.trc :1500
                -ptrace UXXE.trc :
                -ptrace FOOBAR.trc @main:+278

  Branch predictor configuration examples for 2-level predictor:
    Configurations:   N, M, W, X
      N   # entries in first level (# of shift register(s))
      W   width of shift register(s)
      M   # entries in 2nd level (# of counters, or other FSM)
      X   (yes-1/no-0) xor history and address for 2nd level index
    Sample predictors:
      GAg     : 1, W, 2^W, 0
      GAp     : 1, W, M (M > 2^W), 0
      PAg     : N, W, 2^W, 0
      PAp     : N, W, M (M == 2^(N+W)), 0
      gshare  : 1, W, 2^W, 1
  Predictor `comb' combines a bimodal and a 2-level predictor.

  The cache config parameter <config> has the following format:

    <name>:<nsets>:<bsize>:<assoc>:<repl>

    <name>   - name of the cache being defined
    <nsets>  - number of sets in the cache
    <bsize>  - block size of the cache
    <assoc>  - associativity of the cache
    <repl>   - block replacement strategy, 'l'-LRU, 'f'-FIFO, 'r'-random

    Examples:   -cache:dl1 dl1:4096:32:1:l
                -dtlb dtlb:128:4096:32:r

  Cache levels can be unified by pointing a level of the instruction cache
  hierarchy at the data cache hiearchy using the "dl1" and "dl2" cache
  configuration arguments.  Most sensible combinations are supported, e.g.,

    A unified l2 cache (il2 is pointed at dl2):
      -cache:il1 il1:128:64:1:l -cache:il2 dl2
      -cache:dl1 dl1:256:32:1:l -cache:dl2 ul2:1024:64:2:l

    Or, a fully unified cache hierarchy (il1 pointed at dl1):
      -cache:il1 dl1
      -cache:dl1 ul1:256:32:1:l -cache:dl2 ul2:1024:64:2:l



sim: ** starting performance simulation **

sim: ** simulation statistics **
sim_num_insn              100000003 # total number of instructions committed
sim_num_refs               38466235 # total number of loads and stores committed
sim_num_loads              26218244 # total number of loads committed
sim_num_stores         12247991.0000 # total number of stores committed
sim_num_branches           17896987 # total number of branches committed
sim_elapsed_time                144 # total simulation time in seconds
sim_inst_rate           694444.4653 # simulation speed (in insts/sec)
sim_total_insn            109974961 # total number of instructions executed
sim_total_refs             42821975 # total number of loads and stores executed
sim_total_loads            28972146 # total number of loads executed
sim_total_stores       13849829.0000 # total number of stores executed
sim_total_branches         19710931 # total number of branches executed
sim_cycle                  77387993 # total simulation time in cycles
sim_IPC                      1.2922 # instructions per cycle
sim_CPI                      0.7739 # cycles per instruction
sim_exec_BW                  1.4211 # total instructions (mis-spec + committed) per cycle
sim_IPB                      5.5875 # instruction per branch
IFQ_count                 701276304 # cumulative IFQ occupancy
IFQ_fcount                 38925140 # cumulative IFQ full count
ifq_occupancy                9.0618 # avg IFQ occupancy (insn's)
ifq_rate                     1.4211 # avg IFQ dispatch rate (insn/cycle)
ifq_latency                  6.3767 # avg IFQ occupant latency (cycle's)
ifq_full                     0.5030 # fraction of time (cycle's) IFQ was full
RUU_count                3194490428 # cumulative RUU occupancy
RUU_fcount                 42028447 # cumulative RUU full count
ruu_occupancy               41.2789 # avg RUU occupancy (insn's)
ruu_rate                     1.4211 # avg RUU dispatch rate (insn/cycle)
ruu_latency                 29.0474 # avg RUU occupant latency (cycle's)
ruu_full                     0.5431 # fraction of time (cycle's) RUU was full
LSQ_count                1139056739 # cumulative LSQ occupancy
LSQ_fcount                        0 # cumulative LSQ full count
lsq_occupancy               14.7188 # avg LSQ occupancy (insn's)
lsq_rate                     1.4211 # avg LSQ dispatch rate (insn/cycle)
lsq_latency                 10.3574 # avg LSQ occupant latency (cycle's)
lsq_full                     0.0000 # fraction of time (cycle's) LSQ was full
sim_slip                 4227813966 # total number of slip cycles
avg_sim_slip                42.2781 # the average slip between issue and retirement
bpred_2lev.lookups         20025688 # total number of bpred lookups
bpred_2lev.updates         17896973 # total number of updates
bpred_2lev.addr_hits       17124456 # total number of address-predicted hits
bpred_2lev.dir_hits        17309345 # total number of direction-predicted hits (includes addr-hits)
bpred_2lev.misses            587628 # total number of misses
bpred_2lev.jr_hits          1473907 # total number of address-predicted hits for JR's
bpred_2lev.jr_seen          1651260 # total number of JR's seen
bpred_2lev.jr_non_ras_hits.PP         9264 # total number of address-predicted hits for non-RAS JR's
bpred_2lev.jr_non_ras_seen.PP        11641 # total number of non-RAS JR's seen
bpred_2lev.bpred_addr_rate    0.9568 # branch address-prediction rate (i.e., addr-hits/updates)
bpred_2lev.bpred_dir_rate    0.9672 # branch direction-prediction rate (i.e., all-hits/updates)
bpred_2lev.bpred_jr_rate    0.8926 # JR address-prediction rate (i.e., JR addr-hits/JRs seen)
bpred_2lev.bpred_jr_non_ras_rate.PP    0.7958 # non-RAS JR addr-pred rate (ie, non-RAS JR hits/JRs seen)
bpred_2lev.retstack_pushes      2049667 # total number of address pushed onto ret-addr stack
bpred_2lev.retstack_pops      1865100 # total number of address popped off of ret-addr stack
bpred_2lev.used_ras.PP      1639619 # total number of RAS predictions used
bpred_2lev.ras_hits.PP      1464643 # total number of RAS hits
bpred_2lev.ras_rate.PP    0.8933 # RAS prediction rate (i.e., RAS hits/used RAS)
il1.accesses              112885940 # total number of accesses
il1.hits                  112464679 # total number of hits
il1.misses                   421261 # total number of misses
il1.replacements             421005 # total number of replacements
il1.writebacks                    0 # total number of writebacks
il1.invalidations                 0 # total number of invalidations
il1.miss_rate                0.0037 # miss rate (i.e., misses/ref)
il1.repl_rate                0.0037 # replacement rate (i.e., repls/ref)
il1.wb_rate                  0.0000 # writeback rate (i.e., wrbks/ref)
il1.inv_rate                 0.0000 # invalidation rate (i.e., invs/ref)
dl1.accesses               38630909 # total number of accesses
dl1.hits                   38100628 # total number of hits
dl1.misses                   530281 # total number of misses
dl1.replacements             530025 # total number of replacements
dl1.writebacks                61852 # total number of writebacks
dl1.invalidations                 0 # total number of invalidations
dl1.miss_rate                0.0137 # miss rate (i.e., misses/ref)
dl1.repl_rate                0.0137 # replacement rate (i.e., repls/ref)
dl1.wb_rate                  0.0016 # writeback rate (i.e., wrbks/ref)
dl1.inv_rate                 0.0000 # invalidation rate (i.e., invs/ref)
dl2.accesses                1013394 # total number of accesses
dl2.hits                     533008 # total number of hits
dl2.misses                   480386 # total number of misses
dl2.replacements             478338 # total number of replacements
dl2.writebacks                31340 # total number of writebacks
dl2.invalidations                 0 # total number of invalidations
dl2.miss_rate                0.4740 # miss rate (i.e., misses/ref)
dl2.repl_rate                0.4720 # replacement rate (i.e., repls/ref)
dl2.wb_rate                  0.0309 # writeback rate (i.e., wrbks/ref)
dl2.inv_rate                 0.0000 # invalidation rate (i.e., invs/ref)
itlb.accesses             112885940 # total number of accesses
itlb.hits                 112878494 # total number of hits
itlb.misses                    7446 # total number of misses
itlb.replacements              7384 # total number of replacements
itlb.writebacks                   0 # total number of writebacks
itlb.invalidations                0 # total number of invalidations
itlb.miss_rate               0.0001 # miss rate (i.e., misses/ref)
itlb.repl_rate               0.0001 # replacement rate (i.e., repls/ref)
itlb.wb_rate                 0.0000 # writeback rate (i.e., wrbks/ref)
itlb.inv_rate                0.0000 # invalidation rate (i.e., invs/ref)
dtlb.accesses              39610025 # total number of accesses
dtlb.hits                  39488135 # total number of hits
dtlb.misses                  121890 # total number of misses
dtlb.replacements            121762 # total number of replacements
dtlb.writebacks                   0 # total number of writebacks
dtlb.invalidations                0 # total number of invalidations
dtlb.miss_rate               0.0031 # miss rate (i.e., misses/ref)
dtlb.repl_rate               0.0031 # replacement rate (i.e., repls/ref)
dtlb.wb_rate                 0.0000 # writeback rate (i.e., wrbks/ref)
dtlb.inv_rate                0.0000 # invalidation rate (i.e., invs/ref)
rename_power           253114341.6814 # total power usage of rename unit
bpred_power            241152619.7294 # total power usage of bpred unit
window_power           3344401798.9857 # total power usage of instruction window
lsq_power              722089724.7174 # total power usage of load/store queue
regfile_power          1945436842.9553 # total power usage of arch. regfile
icache_power           234691794.9362 # total power usage of icache
dcache_power           996586797.6159 # total power usage of dcache
dcache2_power          240133144.5326 # total power usage of dcache2
alu_power              2571000958.4232 # total power usage of alu
falu_power             2210362814.5187 # total power usage of falu
resultbus_power        2424420032.4120 # total power usage of resultbus
clock_power            4787592301.1861 # total power usage of clock
avg_rename_power             3.2707 # avg power usage of rename unit
avg_bpred_power              3.1162 # avg power usage of bpred unit
avg_window_power            43.2160 # avg power usage of instruction window
avg_lsq_power                9.3308 # avg power usage of lsq
avg_regfile_power           25.1387 # avg power usage of arch. regfile
avg_icache_power             3.0327 # avg power usage of icache
avg_dcache_power            12.8778 # avg power usage of dcache
avg_dcache2_power            3.1030 # avg power usage of dcache2
avg_alu_power               33.2222 # avg power usage of alu
avg_falu_power              28.5621 # avg power usage of falu
avg_resultbus_power         31.3281 # avg power usage of resultbus
avg_clock_power             61.8648 # avg power usage of clock
fetch_stage_power      475844414.6656 # total power usage of fetch stage
dispatch_stage_power   253114341.6814 # total power usage of dispatch stage
issue_stage_power      10298632456.6868 # total power usage of issue stage
avg_fetch_power              6.1488 # average power of fetch unit per cycle
avg_dispatch_power           3.2707 # average power of dispatch unit per cycle
avg_issue_power            133.0779 # average power of issue unit per cycle
total_power            17760620357.1752 # total power per cycle
avg_total_power_cycle      229.5010 # average total power per cycle
avg_total_power_cycle_nofp_nod2     197.8359 # average total power per cycle
avg_total_power_insn       161.4969 # average total power per insn
avg_total_power_insn_nofp_nod2     139.2146 # average total power per insn
rename_power_cc1       61303535.1564 # total power usage of rename unit_cc1
bpred_power_cc1        34056480.2065 # total power usage of bpred unit_cc1
window_power_cc1       1201724822.3080 # total power usage of instruction window_cc1
lsq_power_cc1          122568538.9967 # total power usage of lsq_cc1
regfile_power_cc1      526100194.5380 # total power usage of arch. regfile_cc1
icache_power_cc1       60397645.4246 # total power usage of icache_cc1
dcache_power_cc1       251351390.4488 # total power usage of dcache_cc1
dcache2_power_cc1      2861331.6803 # total power usage of dcache2_cc1
alu_power_cc1          133963165.3323 # total power usage of alu_cc1
resultbus_power_cc1    843581224.1678 # total power usage of resultbus_cc1
clock_power_cc1        1218969349.8436 # total power usage of clock_cc1
avg_rename_power_cc1         0.7922 # avg power usage of rename unit_cc1
avg_bpred_power_cc1          0.4401 # avg power usage of bpred unit_cc1
avg_window_power_cc1        15.5286 # avg power usage of instruction window_cc1
avg_lsq_power_cc1            1.5838 # avg power usage of lsq_cc1
avg_regfile_power_cc1        6.7982 # avg power usage of arch. regfile_cc1
avg_icache_power_cc1         0.7805 # avg power usage of icache_cc1
avg_dcache_power_cc1         3.2479 # avg power usage of dcache_cc1
avg_dcache2_power_cc1        0.0370 # avg power usage of dcache2_cc1
avg_alu_power_cc1            1.7311 # avg power usage of alu_cc1
avg_resultbus_power_cc1      10.9007 # avg power usage of resultbus_cc1
avg_clock_power_cc1         15.7514 # avg power usage of clock_cc1
fetch_stage_power_cc1  94454125.6311 # total power usage of fetch stage_cc1
dispatch_stage_power_cc1 61303535.1564 # total power usage of dispatch stage_cc1
issue_stage_power_cc1  2556050472.9338 # total power usage of issue stage_cc1
avg_fetch_power_cc1          1.2205 # average power of fetch unit per cycle_cc1
avg_dispatch_power_cc1       0.7922 # average power of dispatch unit per cycle_cc1
avg_issue_power_cc1         33.0290 # average power of issue unit per cycle_cc1
total_power_cycle_cc1  4456877678.1029 # total power per cycle_cc1
avg_total_power_cycle_cc1      57.5913 # average total power per cycle_cc1
avg_total_power_insn_cc1      40.5263 # average total power per insn_cc1
rename_power_cc2       22481071.3602 # total power usage of rename unit_cc2
bpred_power_cc2        27884829.1796 # total power usage of bpred unit_cc2
window_power_cc2       406229059.0599 # total power usage of instruction window_cc2
lsq_power_cc2          52092894.3749 # total power usage of lsq_cc2
regfile_power_cc2      51775881.0194 # total power usage of arch. regfile_cc2
icache_power_cc2       60397645.4246 # total power usage of icache_cc2
dcache_power_cc2       124370242.4462 # total power usage of dcache_cc2
dcache2_power_cc2       786134.5108 # total power usage of dcache2_cc2
alu_power_cc2          121937106.2444 # total power usage of alu_cc2
resultbus_power_cc2    206931048.6363 # total power usage of resultbus_cc2
clock_power_cc2        404730506.8812 # total power usage of clock_cc2
avg_rename_power_cc2         0.2905 # avg power usage of rename unit_cc2
avg_bpred_power_cc2          0.3603 # avg power usage of bpred unit_cc2
avg_window_power_cc2         5.2493 # avg power usage of instruction window_cc2
avg_lsq_power_cc2            0.6731 # avg power usage of instruction lsq_cc2
avg_regfile_power_cc2        0.6690 # avg power usage of arch. regfile_cc2
avg_icache_power_cc2         0.7805 # avg power usage of icache_cc2
avg_dcache_power_cc2         1.6071 # avg power usage of dcache_cc2
avg_dcache2_power_cc2        0.0102 # avg power usage of dcache2_cc2
avg_alu_power_cc2            1.5757 # avg power usage of alu_cc2
avg_resultbus_power_cc2       2.6739 # avg power usage of resultbus_cc2
avg_clock_power_cc2          5.2299 # avg power usage of clock_cc2
fetch_stage_power_cc2  88282474.6042 # total power usage of fetch stage_cc2
dispatch_stage_power_cc2 22481071.3602 # total power usage of dispatch stage_cc2
issue_stage_power_cc2  912346485.2724 # total power usage of issue stage_cc2
avg_fetch_power_cc2          1.1408 # average power of fetch unit per cycle_cc2
avg_dispatch_power_cc2       0.2905 # average power of dispatch unit per cycle_cc2
avg_issue_power_cc2         11.7893 # average power of issue unit per cycle_cc2
total_power_cycle_cc2  1479616419.1374 # total power per cycle_cc2
avg_total_power_cycle_cc2      19.1195 # average total power per cycle_cc2
avg_total_power_insn_cc2      13.4541 # average total power per insn_cc2
rename_power_cc3       41662152.0924 # total power usage of rename unit_cc3
bpred_power_cc3        49351996.6875 # total power usage of bpred unit_cc3
window_power_cc3       607790772.7340 # total power usage of instruction window_cc3
lsq_power_cc3          111819971.0373 # total power usage of lsq_cc3
regfile_power_cc3      188894700.3290 # total power usage of arch. regfile_cc3
icache_power_cc3       77827060.4970 # total power usage of icache_cc3
dcache_power_cc3       199117820.7745 # total power usage of dcache_cc3
dcache2_power_cc3      24513353.8644 # total power usage of dcache2_cc3
alu_power_cc3          365640885.0251 # total power usage of alu_cc3
resultbus_power_cc3    359391057.9531 # total power usage of resultbus_cc3
clock_power_cc3        753160378.3836 # total power usage of clock_cc3
avg_rename_power_cc3         0.5384 # avg power usage of rename unit_cc3
avg_bpred_power_cc3          0.6377 # avg power usage of bpred unit_cc3
avg_window_power_cc3         7.8538 # avg power usage of instruction window_cc3
avg_lsq_power_cc3            1.4449 # avg power usage of instruction lsq_cc3
avg_regfile_power_cc3        2.4409 # avg power usage of arch. regfile_cc3
avg_icache_power_cc3         1.0057 # avg power usage of icache_cc3
avg_dcache_power_cc3         2.5730 # avg power usage of dcache_cc3
avg_dcache2_power_cc3        0.3168 # avg power usage of dcache2_cc3
avg_alu_power_cc3            4.7248 # avg power usage of alu_cc3
avg_resultbus_power_cc3       4.6440 # avg power usage of resultbus_cc3
avg_clock_power_cc3          9.7323 # avg power usage of clock_cc3
fetch_stage_power_cc3  127179057.1844 # total power usage of fetch stage_cc3
dispatch_stage_power_cc3 41662152.0924 # total power usage of dispatch stage_cc3
issue_stage_power_cc3  1668273861.3883 # total power usage of issue stage_cc3
avg_fetch_power_cc3          1.6434 # average power of fetch unit per cycle_cc3
avg_dispatch_power_cc3       0.5384 # average power of dispatch unit per cycle_cc3
avg_issue_power_cc3         21.5573 # average power of issue unit per cycle_cc3
total_power_cycle_cc3  2779170149.3777 # total power per cycle_cc3
avg_total_power_cycle_cc3      35.9122 # average total power per cycle_cc3
avg_total_power_insn_cc3      25.2709 # average total power per insn_cc3
total_rename_access       109974961 # total number accesses of rename unit
total_bpred_access         17896973 # total number accesses of bpred unit
total_window_access       382580790 # total number accesses of instruction window
total_lsq_access           41106815 # total number accesses of load/store queue
total_regfile_access      108351259 # total number accesses of arch. regfile
total_icache_access       115183215 # total number accesses of icache
total_dcache_access        38630909 # total number accesses of dcache
total_dcache2_access        1013394 # total number accesses of dcache2
total_alu_access          104498548 # total number accesses of alu
total_resultbus_access    112730150 # total number accesses of resultbus
avg_rename_access            1.4211 # avg number accesses of rename unit
avg_bpred_access             0.2313 # avg number accesses of bpred unit
avg_window_access            4.9437 # avg number accesses of instruction window
avg_lsq_access               0.5312 # avg number accesses of lsq
avg_regfile_access           1.4001 # avg number accesses of arch. regfile
avg_icache_access            1.4884 # avg number accesses of icache
avg_dcache_access            0.4992 # avg number accesses of dcache
avg_dcache2_access           0.0131 # avg number accesses of dcache2
avg_alu_access               1.3503 # avg number accesses of alu
avg_resultbus_access         1.4567 # avg number accesses of resultbus
max_rename_access                16 # max number accesses of rename unit
max_bpred_access                  7 # max number accesses of bpred unit
max_window_access                48 # max number accesses of instruction window
max_lsq_access                   13 # max number accesses of load/store queue
max_regfile_access               36 # max number accesses of arch. regfile
max_icache_access                16 # max number accesses of icache
max_dcache_access                 8 # max number accesses of dcache
max_dcache2_access                7 # max number accesses of dcache2
max_alu_access                    7 # max number accesses of alu
max_resultbus_access             18 # max number accesses of resultbus
max_cycle_power_cc1        175.6253 # maximum cycle power usage of cc1
max_cycle_power_cc2        101.8906 # maximum cycle power usage of cc2
max_cycle_power_cc3        109.2468 # maximum cycle power usage of cc3
sim_invalid_addrs                 0 # total non-speculative bogus addresses seen (debug var)
ld_text_base           0x0120000000 # program text (code) segment base
ld_text_size                 819200 # program text (code) size in bytes
ld_data_base           0x0140000000 # program initialized data segment base
ld_data_size                 118976 # program init'ed `.data' and uninit'ed `.bss' size in bytes
ld_stack_base          0x011ff9b000 # program stack segment base (highest address in stack)
ld_stack_size                 16384 # program initial stack size
ld_prog_entry          0x012005fd04 # program entry point (initial PC)
ld_environ_base        0x011ff961e0 # program environment base address address
ld_target_big_endian              0 # target executable endian-ness, non-zero if big endian
mem.page_count                 7673 # total number of pages allocated
mem.page_mem                 61384k # total size of memory pages allocated
mem.ptab_misses                9321 # total first level page table misses
mem.ptab_accesses         814126790 # total page table accesses
mem.ptab_miss_rate           0.0000 # first level page table miss rate

