sim-outorder: SimpleScalar/Alpha Tool Set version 3.0 of August, 2003.
Copyright (c) 1994-2003 by Todd M. Austin, Ph.D. and SimpleScalar, LLC.
All Rights Reserved. This version of SimpleScalar is licensed for academic
non-commercial use.  No portion of this work may be used by any commercial
entity, or for any commercial purpose, without the prior written permission
of SimpleScalar, LLC (info@simplescalar.com).


Processor Parameters:
Issue Width: 4
Window Size: 16
Number of Virtual Registers: 32
Number of Physical Registers: 16
Datapath Width: 64
Total Power Consumption: 130.283
Branch Predictor Power Consumption: 2.79653  (2.18%)
 branch target buffer power (W): 2.49493
 local predict power (W): 0.0348099
 global predict power (W): 0.0996078
 chooser power (W): 0.0702439
 RAS power (W): 0.0969383
Rename Logic Power Consumption: 0.417965  (0.326%)
 Instruction Decode Power (W): 0.0159915
 RAT decode_power (W): 0.113514
 RAT wordline_power (W): 0.0307815
 RAT bitline_power (W): 0.246771
 DCL Comparators (W): 0.0109075
Instruction Window Power Consumption: 2.20432  (1.72%)
 tagdrive (W): 0.0943488
 tagmatch (W): 0.033695
 Selection Logic (W): 0.0134217
 decode_power (W): 0.0532503
 wordline_power (W): 0.0844643
 bitline_power (W): 1.92514
Load/Store Queue Power Consumption: 6.38923  (4.98%)
 tagdrive (W): 2.22773
 tagmatch (W): 0.482855
 decode_power (W): 0.0319831
 wordline_power (W): 0.139808
 bitline_power (W): 3.50685
Arch. Register File Power Consumption: 3.57247  (2.78%)
 decode_power (W): 0.113514
 wordline_power (W): 0.0844643
 bitline_power (W): 3.37449
Result Bus Power Consumption: 4.18077  (3.26%)
Total Clock Power: 38.9492  (30.4%)
Int ALU Power: 9.32026  (7.27%)
FP ALU Power: 28.5621  (22.3%)
Instruction Cache Power Consumption: 2.76773  (2.16%)
 decode_power (W): 0.151353
 wordline_power (W): 0.180479
 bitline_power (W): 1.42251
 senseamp_power (W): 0.768
 tagarray_power (W): 0.245382
Itlb_power (W): 0.264834 (0.206%)
Data Cache Power Consumption: 22.1418  (17.3%)
 decode_power (W): 1.21082
 wordline_power (W): 1.44383
 bitline_power (W): 11.3801
 senseamp_power (W): 6.144
 tagarray_power (W): 1.96306
Dtlb_power (W): 3.61295 (2.82%)
Level 2 Cache Power Consumption: 3.10298 (2.42%)
 decode_power (W): 0.19487
 wordline_power (W): 0.0430878
 bitline_power (W): 1.77274
 senseamp_power (W): 0.192
 tagarray_power (W): 0.900275
sim: loading EIO file: ../benchmarks/252.eon.rushmeier-ref.eio.gz
sim: command line: ./sim-outorder -config ../configs/current.config ../benchmarks/252.eon.rushmeier-ref.eio.gz 

sim: simulation started @ Mon Nov 23 19:31:15 2015, options follow:

sim-outorder: This simulator implements a very detailed out-of-order issue
superscalar processor with a two-level memory system and speculative
execution support.  This simulator is a performance simulator, tracking the
latency of all pipeline operations.

# -config                     # load configuration from a file
# -dumpconfig                 # dump configuration to a file
# -h                    false # print help message    
# -v                    false # verbose operation     
# -d                    false # enable debug message  
# -i                    false # start in Dlite debugger
-seed                       1 # random number generator seed (0 for timer seed)
# -q                    false # initialize and terminate immediately
# -chkpt               <null> # restore EIO trace execution from <fname>
# -redir:sim     ../results/03_01_max_num_fus/252.eon.rushmeier-ref.eio.gz.out # redirect simulator output to file (non-interactive only)
# -redir:prog       /dev/null # redirect simulated program output to file
-nice                       0 # simulator scheduling priority
-freq            600000000.0000 # frequency             
-max:inst           100000000 # maximum number of inst's to execute
-fastfwd                    0 # number of insts skipped before timing starts
# -ptrace              <null> # generate pipetrace, i.e., <fname|stdout|stderr> <range>
-fetch:ifqsize              4 # instruction fetch queue size (in insts)
-fetch:mplat                3 # extra branch mis-prediction latency
-fetch:speed                1 # speed of front-end of machine relative to execution core
-bpred                perfect # branch predictor type {nottaken|taken|perfect|bimod|2lev|comb}
-bpred:bimod     2048 # bimodal predictor config (<table size>)
-bpred:2lev      1 256 2 0 # 2-level predictor config (<l1size> <l2size> <hist_size> <xor>)
-bpred:comb      1024 # combining predictor config (<meta_table_size>)
-bpred:ras                  8 # return address stack size (0 for no return stack)
-bpred:btb       512 4 # BTB config (<num_sets> <associativity>)
# -bpred:spec_update       <null> # speculative predictors update in {ID|WB} (default non-spec)
-decode:width               4 # instruction decode B/W (insts/cycle)
-issue:width                4 # instruction issue B/W (insts/cycle)
-issue:inorder          false # run pipeline with in-order issue
-issue:wrongpath         true # issue instructions down wrong execution paths
-commit:width               4 # instruction commit B/W (insts/cycle)
-ruu:size                  16 # register update unit (RUU) size
-lsq:size                   8 # load/store queue (LSQ) size
-cache:dl1       dl1:32:64:8:f # l1 data cache config, i.e., {<config>|none}
-cache:dl1lat               1 # l1 data cache hit latency (in cycles)
-cache:dl2       dl2:256:64:8:f # l2 data cache config, i.e., {<config>|none}
-cache:dl2lat               2 # l2 data cache hit latency (in cycles)
-cache:il1       il1:32:64:8:f # l1 inst cache config, i.e., {<config>|dl1|dl2|none}
-cache:il1lat               1 # l1 instruction cache hit latency (in cycles)
-cache:il2                dl2 # l2 instruction cache config, i.e., {<config>|dl2|none}
-cache:il2lat               2 # l2 instruction cache hit latency (in cycles)
-cache:flush            false # flush caches on system calls
-cache:icompress        false # convert 64-bit inst addresses to 32-bit inst equivalents
-mem:lat         103 1 # memory access latency (<first_chunk> <inter_chunk>)
-mem:width                  8 # memory access bus width (in bytes)
-tlb:itlb        itlb:16:4096:4:l # instruction TLB config, i.e., {<config>|none}
-tlb:dtlb        dtlb:32:4096:4:l # data TLB config, i.e., {<config>|none}
-tlb:lat                   30 # inst/data TLB miss latency (in cycles)
-res:ialu                   8 # total number of integer ALU's available
-res:imult                  8 # total number of integer multiplier/dividers available
-res:memport                8 # total number of memory system ports available (to CPU)
-res:fpalu                  8 # total number of floating point ALU's available
-res:fpmult                 8 # total number of floating point multiplier/dividers available
# -pcstat              <null> # profile stat(s) against text addr's (mult uses ok)
-bugcompat              false # operate in backward-compatible bugs mode (for testing only)

  Pipetrace range arguments are formatted as follows:

    {{@|#}<start>}:{{@|#|+}<end>}

  Both ends of the range are optional, if neither are specified, the entire
  execution is traced.  Ranges that start with a `@' designate an address
  range to be traced, those that start with an `#' designate a cycle count
  range.  All other range values represent an instruction count range.  The
  second argument, if specified with a `+', indicates a value relative
  to the first argument, e.g., 1000:+100 == 1000:1100.  Program symbols may
  be used in all contexts.

    Examples:   -ptrace FOO.trc #0:#1000
                -ptrace BAR.trc @2000:
                -ptrace BLAH.trc :1500
                -ptrace UXXE.trc :
                -ptrace FOOBAR.trc @main:+278

  Branch predictor configuration examples for 2-level predictor:
    Configurations:   N, M, W, X
      N   # entries in first level (# of shift register(s))
      W   width of shift register(s)
      M   # entries in 2nd level (# of counters, or other FSM)
      X   (yes-1/no-0) xor history and address for 2nd level index
    Sample predictors:
      GAg     : 1, W, 2^W, 0
      GAp     : 1, W, M (M > 2^W), 0
      PAg     : N, W, 2^W, 0
      PAp     : N, W, M (M == 2^(N+W)), 0
      gshare  : 1, W, 2^W, 1
  Predictor `comb' combines a bimodal and a 2-level predictor.

  The cache config parameter <config> has the following format:

    <name>:<nsets>:<bsize>:<assoc>:<repl>

    <name>   - name of the cache being defined
    <nsets>  - number of sets in the cache
    <bsize>  - block size of the cache
    <assoc>  - associativity of the cache
    <repl>   - block replacement strategy, 'l'-LRU, 'f'-FIFO, 'r'-random

    Examples:   -cache:dl1 dl1:4096:32:1:l
                -dtlb dtlb:128:4096:32:r

  Cache levels can be unified by pointing a level of the instruction cache
  hierarchy at the data cache hiearchy using the "dl1" and "dl2" cache
  configuration arguments.  Most sensible combinations are supported, e.g.,

    A unified l2 cache (il2 is pointed at dl2):
      -cache:il1 il1:128:64:1:l -cache:il2 dl2
      -cache:dl1 dl1:256:32:1:l -cache:dl2 ul2:1024:64:2:l

    Or, a fully unified cache hierarchy (il1 pointed at dl1):
      -cache:il1 dl1
      -cache:dl1 ul1:256:32:1:l -cache:dl2 ul2:1024:64:2:l



sim: ** starting performance simulation **

sim: ** simulation statistics **
sim_num_insn              100000000 # total number of instructions committed
sim_num_refs               48401868 # total number of loads and stores committed
sim_num_loads              29359945 # total number of loads committed
sim_num_stores         19041923.0000 # total number of stores committed
sim_num_branches           11497412 # total number of branches committed
sim_elapsed_time                111 # total simulation time in seconds
sim_inst_rate           900900.9009 # simulation speed (in insts/sec)
sim_total_insn            100000000 # total number of instructions executed
sim_total_refs             48401868 # total number of loads and stores executed
sim_total_loads            29359945 # total number of loads executed
sim_total_stores       19041923.0000 # total number of stores executed
sim_total_branches         11497412 # total number of branches executed
sim_cycle                  48660094 # total simulation time in cycles
sim_IPC                      2.0551 # instructions per cycle
sim_CPI                      0.4866 # cycles per instruction
sim_exec_BW                  2.0551 # total instructions (mis-spec + committed) per cycle
sim_IPB                      8.6976 # instruction per branch
IFQ_count                 187009066 # cumulative IFQ occupancy
IFQ_fcount                 46399168 # cumulative IFQ full count
ifq_occupancy                3.8432 # avg IFQ occupancy (insn's)
ifq_rate                     2.0551 # avg IFQ dispatch rate (insn/cycle)
ifq_latency                  1.8701 # avg IFQ occupant latency (cycle's)
ifq_full                     0.9535 # fraction of time (cycle's) IFQ was full
RUU_count                 642153104 # cumulative RUU occupancy
RUU_fcount                 16474562 # cumulative RUU full count
ruu_occupancy               13.1967 # avg RUU occupancy (insn's)
ruu_rate                     2.0551 # avg RUU dispatch rate (insn/cycle)
ruu_latency                  6.4215 # avg RUU occupant latency (cycle's)
ruu_full                     0.3386 # fraction of time (cycle's) RUU was full
LSQ_count                 289627888 # cumulative LSQ occupancy
LSQ_fcount                 16146196 # cumulative LSQ full count
lsq_occupancy                5.9521 # avg LSQ occupancy (insn's)
lsq_rate                     2.0551 # avg LSQ dispatch rate (insn/cycle)
lsq_latency                  2.8963 # avg LSQ occupant latency (cycle's)
lsq_full                     0.3318 # fraction of time (cycle's) LSQ was full
sim_slip                 1080182776 # total number of slip cycles
avg_sim_slip                10.8018 # the average slip between issue and retirement
il1.accesses              114758463 # total number of accesses
il1.hits                  113656974 # total number of hits
il1.misses                  1101489 # total number of misses
il1.replacements            1101233 # total number of replacements
il1.writebacks                    0 # total number of writebacks
il1.invalidations                 0 # total number of invalidations
il1.miss_rate                0.0096 # miss rate (i.e., misses/ref)
il1.repl_rate                0.0096 # replacement rate (i.e., repls/ref)
il1.wb_rate                  0.0000 # writeback rate (i.e., wrbks/ref)
il1.inv_rate                 0.0000 # invalidation rate (i.e., invs/ref)
dl1.accesses               48098655 # total number of accesses
dl1.hits                   47700118 # total number of hits
dl1.misses                   398537 # total number of misses
dl1.replacements             398281 # total number of replacements
dl1.writebacks                99125 # total number of writebacks
dl1.invalidations                 0 # total number of invalidations
dl1.miss_rate                0.0083 # miss rate (i.e., misses/ref)
dl1.repl_rate                0.0083 # replacement rate (i.e., repls/ref)
dl1.wb_rate                  0.0021 # writeback rate (i.e., wrbks/ref)
dl1.inv_rate                 0.0000 # invalidation rate (i.e., invs/ref)
dl2.accesses                1599151 # total number of accesses
dl2.hits                    1597646 # total number of hits
dl2.misses                     1505 # total number of misses
dl2.replacements                108 # total number of replacements
dl2.writebacks                   19 # total number of writebacks
dl2.invalidations                 0 # total number of invalidations
dl2.miss_rate                0.0009 # miss rate (i.e., misses/ref)
dl2.repl_rate                0.0001 # replacement rate (i.e., repls/ref)
dl2.wb_rate                  0.0000 # writeback rate (i.e., wrbks/ref)
dl2.inv_rate                 0.0000 # invalidation rate (i.e., invs/ref)
itlb.accesses             114758463 # total number of accesses
itlb.hits                 114758408 # total number of hits
itlb.misses                      55 # total number of misses
itlb.replacements                 8 # total number of replacements
itlb.writebacks                   0 # total number of writebacks
itlb.invalidations                0 # total number of invalidations
itlb.miss_rate               0.0000 # miss rate (i.e., misses/ref)
itlb.repl_rate               0.0000 # replacement rate (i.e., repls/ref)
itlb.wb_rate                 0.0000 # writeback rate (i.e., wrbks/ref)
itlb.inv_rate                0.0000 # invalidation rate (i.e., invs/ref)
dtlb.accesses              48401863 # total number of accesses
dtlb.hits                  48401805 # total number of hits
dtlb.misses                      58 # total number of misses
dtlb.replacements                 0 # total number of replacements
dtlb.writebacks                   0 # total number of writebacks
dtlb.invalidations                0 # total number of invalidations
dtlb.miss_rate               0.0000 # miss rate (i.e., misses/ref)
dtlb.repl_rate               0.0000 # replacement rate (i.e., repls/ref)
dtlb.wb_rate                 0.0000 # writeback rate (i.e., wrbks/ref)
dtlb.inv_rate                0.0000 # invalidation rate (i.e., invs/ref)
rename_power           20338239.8699 # total power usage of rename unit
bpred_power            136079306.4696 # total power usage of bpred unit
window_power           107262390.0717 # total power usage of instruction window
lsq_power              310900612.9778 # total power usage of load/store queue
regfile_power          173836828.4267 # total power usage of arch. regfile
icache_power           147564803.4230 # total power usage of icache
dcache_power           1253230168.9057 # total power usage of dcache
dcache2_power          150991141.3074 # total power usage of dcache2
alu_power              1843358753.4093 # total power usage of alu
falu_power             1389833980.0667 # total power usage of falu
resultbus_power        203436892.7173 # total power usage of resultbus
clock_power            1895272669.6253 # total power usage of clock
avg_rename_power             0.4180 # avg power usage of rename unit
avg_bpred_power              2.7965 # avg power usage of bpred unit
avg_window_power             2.2043 # avg power usage of instruction window
avg_lsq_power                6.3892 # avg power usage of lsq
avg_regfile_power            3.5725 # avg power usage of arch. regfile
avg_icache_power             3.0326 # avg power usage of icache
avg_dcache_power            25.7548 # avg power usage of dcache
avg_dcache2_power            3.1030 # avg power usage of dcache2
avg_alu_power               37.8824 # avg power usage of alu
avg_falu_power              28.5621 # avg power usage of falu
avg_resultbus_power          4.1808 # avg power usage of resultbus
avg_clock_power             38.9492 # avg power usage of clock
fetch_stage_power      283644109.8926 # total power usage of fetch stage
dispatch_stage_power   20338239.8699 # total power usage of dispatch stage
issue_stage_power      3869179959.3893 # total power usage of issue stage
avg_fetch_power              5.8291 # average power of fetch unit per cycle
avg_dispatch_power           0.4180 # average power of dispatch unit per cycle
avg_issue_power             79.5144 # average power of issue unit per cycle
total_power            6242271807.2037 # total power per cycle
avg_total_power_cycle      128.2832 # average total power per cycle
avg_total_power_cycle_nofp_nod2      96.6181 # average total power per cycle
avg_total_power_insn        62.4227 # average total power per insn
avg_total_power_insn_nofp_nod2      47.0145 # average total power per insn
rename_power_cc1       15093427.5464 # total power usage of rename unit_cc1
bpred_power_cc1              0.0000 # total power usage of bpred unit_cc1
window_power_cc1       98553749.3074 # total power usage of instruction window_cc1
lsq_power_cc1          89567908.9383 # total power usage of lsq_cc1
regfile_power_cc1      118881449.2711 # total power usage of arch. regfile_cc1
icache_power_cc1       111232381.0798 # total power usage of icache_cc1
dcache_power_cc1       682194859.2777 # total power usage of dcache_cc1
dcache2_power_cc1      4549975.5183 # total power usage of dcache2_cc1
alu_power_cc1          634715210.3388 # total power usage of alu_cc1
resultbus_power_cc1    168954261.0884 # total power usage of resultbus_cc1
clock_power_cc1        860569120.4266 # total power usage of clock_cc1
avg_rename_power_cc1         0.3102 # avg power usage of rename unit_cc1
avg_bpred_power_cc1          0.0000 # avg power usage of bpred unit_cc1
avg_window_power_cc1         2.0254 # avg power usage of instruction window_cc1
avg_lsq_power_cc1            1.8407 # avg power usage of lsq_cc1
avg_regfile_power_cc1        2.4431 # avg power usage of arch. regfile_cc1
avg_icache_power_cc1         2.2859 # avg power usage of icache_cc1
avg_dcache_power_cc1        14.0196 # avg power usage of dcache_cc1
avg_dcache2_power_cc1        0.0935 # avg power usage of dcache2_cc1
avg_alu_power_cc1           13.0439 # avg power usage of alu_cc1
avg_resultbus_power_cc1       3.4721 # avg power usage of resultbus_cc1
avg_clock_power_cc1         17.6853 # avg power usage of clock_cc1
fetch_stage_power_cc1  111232381.0798 # total power usage of fetch stage_cc1
dispatch_stage_power_cc1 15093427.5464 # total power usage of dispatch stage_cc1
issue_stage_power_cc1  1678535964.4689 # total power usage of issue stage_cc1
avg_fetch_power_cc1          2.2859 # average power of fetch unit per cycle_cc1
avg_dispatch_power_cc1       0.3102 # average power of dispatch unit per cycle_cc1
avg_issue_power_cc1         34.4951 # average power of issue unit per cycle_cc1
total_power_cycle_cc1  2784312342.7927 # total power per cycle_cc1
avg_total_power_cycle_cc1      57.2196 # average total power per cycle_cc1
avg_total_power_insn_cc1      27.8431 # average total power per insn_cc1
rename_power_cc2       10449137.1669 # total power usage of rename unit_cc2
bpred_power_cc2              0.0000 # total power usage of bpred unit_cc2
window_power_cc2       82768287.4604 # total power usage of instruction window_cc2
lsq_power_cc2          17211379.2376 # total power usage of lsq_cc2
regfile_power_cc2      40751215.3024 # total power usage of arch. regfile_cc2
icache_power_cc2       111232381.0798 # total power usage of icache_cc2
dcache_power_cc2       154846303.5928 # total power usage of dcache_cc2
dcache2_power_cc2       620266.0510 # total power usage of dcache2_cc2
alu_power_cc2          147625644.4767 # total power usage of alu_cc2
resultbus_power_cc2    115489842.5142 # total power usage of resultbus_cc2
clock_power_cc2        304371163.3105 # total power usage of clock_cc2
avg_rename_power_cc2         0.2147 # avg power usage of rename unit_cc2
avg_bpred_power_cc2          0.0000 # avg power usage of bpred unit_cc2
avg_window_power_cc2         1.7009 # avg power usage of instruction window_cc2
avg_lsq_power_cc2            0.3537 # avg power usage of instruction lsq_cc2
avg_regfile_power_cc2        0.8375 # avg power usage of arch. regfile_cc2
avg_icache_power_cc2         2.2859 # avg power usage of icache_cc2
avg_dcache_power_cc2         3.1822 # avg power usage of dcache_cc2
avg_dcache2_power_cc2        0.0127 # avg power usage of dcache2_cc2
avg_alu_power_cc2            3.0338 # avg power usage of alu_cc2
avg_resultbus_power_cc2       2.3734 # avg power usage of resultbus_cc2
avg_clock_power_cc2          6.2550 # avg power usage of clock_cc2
fetch_stage_power_cc2  111232381.0798 # total power usage of fetch stage_cc2
dispatch_stage_power_cc2 10449137.1669 # total power usage of dispatch stage_cc2
issue_stage_power_cc2  518561723.3326 # total power usage of issue stage_cc2
avg_fetch_power_cc2          2.2859 # average power of fetch unit per cycle_cc2
avg_dispatch_power_cc2       0.2147 # average power of dispatch unit per cycle_cc2
avg_issue_power_cc2         10.6568 # average power of issue unit per cycle_cc2
total_power_cycle_cc2  985365620.1922 # total power per cycle_cc2
avg_total_power_cycle_cc2      20.2500 # average total power per cycle_cc2
avg_total_power_insn_cc2       9.8537 # average total power per insn_cc2
rename_power_cc3       10973618.3966 # total power usage of rename unit_cc3
bpred_power_cc3        13607930.6477 # total power usage of bpred unit_cc3
window_power_cc3       83254866.5413 # total power usage of instruction window_cc3
lsq_power_cc3          38482365.4303 # total power usage of lsq_cc3
regfile_power_cc3      44323265.5024 # total power usage of arch. regfile_cc3
icache_power_cc3       114865623.2935 # total power usage of icache_cc3
dcache_power_cc3       211949834.5695 # total power usage of dcache_cc3
dcache2_power_cc3      15264382.6435 # total power usage of dcache2_cc3
alu_power_cc3          268489998.3571 # total power usage of alu_cc3
resultbus_power_cc3    118050041.0950 # total power usage of resultbus_cc3
clock_power_cc3        406006176.0988 # total power usage of clock_cc3
avg_rename_power_cc3         0.2255 # avg power usage of rename unit_cc3
avg_bpred_power_cc3          0.2797 # avg power usage of bpred unit_cc3
avg_window_power_cc3         1.7109 # avg power usage of instruction window_cc3
avg_lsq_power_cc3            0.7908 # avg power usage of instruction lsq_cc3
avg_regfile_power_cc3        0.9109 # avg power usage of arch. regfile_cc3
avg_icache_power_cc3         2.3606 # avg power usage of icache_cc3
avg_dcache_power_cc3         4.3557 # avg power usage of dcache_cc3
avg_dcache2_power_cc3        0.3137 # avg power usage of dcache2_cc3
avg_alu_power_cc3            5.5177 # avg power usage of alu_cc3
avg_resultbus_power_cc3       2.4260 # avg power usage of resultbus_cc3
avg_clock_power_cc3          8.3437 # avg power usage of clock_cc3
fetch_stage_power_cc3  128473553.9412 # total power usage of fetch stage_cc3
dispatch_stage_power_cc3 10973618.3966 # total power usage of dispatch stage_cc3
issue_stage_power_cc3  735491488.6368 # total power usage of issue stage_cc3
avg_fetch_power_cc3          2.6402 # average power of fetch unit per cycle_cc3
avg_dispatch_power_cc3       0.2255 # average power of dispatch unit per cycle_cc3
avg_issue_power_cc3         15.1149 # average power of issue unit per cycle_cc3
total_power_cycle_cc3  1325268102.5758 # total power per cycle_cc3
avg_total_power_cycle_cc3      27.2352 # average total power per cycle_cc3
avg_total_power_insn_cc3      13.2527 # average total power per insn_cc3
total_rename_access       100000000 # total number accesses of rename unit
total_bpred_access                0 # total number accesses of bpred unit
total_window_access       402000878 # total number accesses of instruction window
total_lsq_access           48705072 # total number accesses of load/store queue
total_regfile_access      160771175 # total number accesses of arch. regfile
total_icache_access       114758463 # total number accesses of icache
total_dcache_access        48098655 # total number accesses of dcache
total_dcache2_access        1599151 # total number accesses of dcache2
total_alu_access           99920173 # total number accesses of alu
total_resultbus_access    117862523 # total number accesses of resultbus
avg_rename_access            2.0551 # avg number accesses of rename unit
avg_bpred_access             0.0000 # avg number accesses of bpred unit
avg_window_access            8.2614 # avg number accesses of instruction window
avg_lsq_access               1.0009 # avg number accesses of lsq
avg_regfile_access           3.3040 # avg number accesses of arch. regfile
avg_icache_access            2.3584 # avg number accesses of icache
avg_dcache_access            0.9885 # avg number accesses of dcache
avg_dcache2_access           0.0329 # avg number accesses of dcache2
avg_alu_access               2.0534 # avg number accesses of alu
avg_resultbus_access         2.4222 # avg number accesses of resultbus
max_rename_access                 4 # max number accesses of rename unit
max_bpred_access                  0 # max number accesses of bpred unit
max_window_access                18 # max number accesses of instruction window
max_lsq_access                    6 # max number accesses of load/store queue
max_regfile_access               12 # max number accesses of arch. regfile
max_icache_access                 4 # max number accesses of icache
max_dcache_access                 6 # max number accesses of dcache
max_dcache2_access                5 # max number accesses of dcache2
max_alu_access                    4 # max number accesses of alu
max_resultbus_access              8 # max number accesses of resultbus
max_cycle_power_cc1        103.3571 # maximum cycle power usage of cc1
max_cycle_power_cc2         40.3609 # maximum cycle power usage of cc2
max_cycle_power_cc3         45.9405 # maximum cycle power usage of cc3
sim_invalid_addrs                 0 # total non-speculative bogus addresses seen (debug var)
ld_text_base           0x0120000000 # program text (code) segment base
ld_text_size                 794624 # program text (code) size in bytes
ld_data_base           0x0140000000 # program initialized data segment base
ld_data_size                 216592 # program init'ed `.data' and uninit'ed `.bss' size in bytes
ld_stack_base          0x011ff9b000 # program stack segment base (highest address in stack)
ld_stack_size                 16384 # program initial stack size
ld_prog_entry          0x012009cb24 # program entry point (initial PC)
ld_environ_base        0x011ff955d0 # program environment base address address
ld_target_big_endian              0 # target executable endian-ness, non-zero if big endian
mem.page_count                  163 # total number of pages allocated
mem.page_mem                  1304k # total size of memory pages allocated
mem.ptab_misses              352663 # total first level page table misses
mem.ptab_accesses         892992190 # total page table accesses
mem.ptab_miss_rate           0.0004 # first level page table miss rate

