sim-outorder: SimpleScalar/Alpha Tool Set version 3.0 of August, 2003.
Copyright (c) 1994-2003 by Todd M. Austin, Ph.D. and SimpleScalar, LLC.
All Rights Reserved. This version of SimpleScalar is licensed for academic
non-commercial use.  No portion of this work may be used by any commercial
entity, or for any commercial purpose, without the prior written permission
of SimpleScalar, LLC (info@simplescalar.com).


Processor Parameters:
Issue Width: 4
Window Size: 16
Number of Virtual Registers: 32
Number of Physical Registers: 16
Datapath Width: 64
Total Power Consumption: 130.283
Branch Predictor Power Consumption: 2.79653  (2.18%)
 branch target buffer power (W): 2.49493
 local predict power (W): 0.0348099
 global predict power (W): 0.0996078
 chooser power (W): 0.0702439
 RAS power (W): 0.0969383
Rename Logic Power Consumption: 0.417965  (0.326%)
 Instruction Decode Power (W): 0.0159915
 RAT decode_power (W): 0.113514
 RAT wordline_power (W): 0.0307815
 RAT bitline_power (W): 0.246771
 DCL Comparators (W): 0.0109075
Instruction Window Power Consumption: 2.20432  (1.72%)
 tagdrive (W): 0.0943488
 tagmatch (W): 0.033695
 Selection Logic (W): 0.0134217
 decode_power (W): 0.0532503
 wordline_power (W): 0.0844643
 bitline_power (W): 1.92514
Load/Store Queue Power Consumption: 6.38923  (4.98%)
 tagdrive (W): 2.22773
 tagmatch (W): 0.482855
 decode_power (W): 0.0319831
 wordline_power (W): 0.139808
 bitline_power (W): 3.50685
Arch. Register File Power Consumption: 3.57247  (2.78%)
 decode_power (W): 0.113514
 wordline_power (W): 0.0844643
 bitline_power (W): 3.37449
Result Bus Power Consumption: 4.18077  (3.26%)
Total Clock Power: 38.9492  (30.4%)
Int ALU Power: 9.32026  (7.27%)
FP ALU Power: 28.5621  (22.3%)
Instruction Cache Power Consumption: 2.76773  (2.16%)
 decode_power (W): 0.151353
 wordline_power (W): 0.180479
 bitline_power (W): 1.42251
 senseamp_power (W): 0.768
 tagarray_power (W): 0.245382
Itlb_power (W): 0.264834 (0.206%)
Data Cache Power Consumption: 22.1418  (17.3%)
 decode_power (W): 1.21082
 wordline_power (W): 1.44383
 bitline_power (W): 11.3801
 senseamp_power (W): 6.144
 tagarray_power (W): 1.96306
Dtlb_power (W): 3.61295 (2.82%)
Level 2 Cache Power Consumption: 3.10298 (2.42%)
 decode_power (W): 0.19487
 wordline_power (W): 0.0430878
 bitline_power (W): 1.77274
 senseamp_power (W): 0.192
 tagarray_power (W): 0.900275
sim: loading EIO file: ../benchmarks/256.bzip2.program-ref.eio.gz
sim: command line: ./sim-outorder -config ../configs/current.config ../benchmarks/256.bzip2.program-ref.eio.gz 

sim: simulation started @ Mon Nov 23 19:31:27 2015, options follow:

sim-outorder: This simulator implements a very detailed out-of-order issue
superscalar processor with a two-level memory system and speculative
execution support.  This simulator is a performance simulator, tracking the
latency of all pipeline operations.

# -config                     # load configuration from a file
# -dumpconfig                 # dump configuration to a file
# -h                    false # print help message    
# -v                    false # verbose operation     
# -d                    false # enable debug message  
# -i                    false # start in Dlite debugger
-seed                       1 # random number generator seed (0 for timer seed)
# -q                    false # initialize and terminate immediately
# -chkpt               <null> # restore EIO trace execution from <fname>
# -redir:sim     ../results/03_01_max_num_fus/256.bzip2.program-ref.eio.gz.out # redirect simulator output to file (non-interactive only)
# -redir:prog       /dev/null # redirect simulated program output to file
-nice                       0 # simulator scheduling priority
-freq            600000000.0000 # frequency             
-max:inst           100000000 # maximum number of inst's to execute
-fastfwd                    0 # number of insts skipped before timing starts
# -ptrace              <null> # generate pipetrace, i.e., <fname|stdout|stderr> <range>
-fetch:ifqsize              4 # instruction fetch queue size (in insts)
-fetch:mplat                3 # extra branch mis-prediction latency
-fetch:speed                1 # speed of front-end of machine relative to execution core
-bpred                perfect # branch predictor type {nottaken|taken|perfect|bimod|2lev|comb}
-bpred:bimod     2048 # bimodal predictor config (<table size>)
-bpred:2lev      1 256 2 0 # 2-level predictor config (<l1size> <l2size> <hist_size> <xor>)
-bpred:comb      1024 # combining predictor config (<meta_table_size>)
-bpred:ras                  8 # return address stack size (0 for no return stack)
-bpred:btb       512 4 # BTB config (<num_sets> <associativity>)
# -bpred:spec_update       <null> # speculative predictors update in {ID|WB} (default non-spec)
-decode:width               4 # instruction decode B/W (insts/cycle)
-issue:width                4 # instruction issue B/W (insts/cycle)
-issue:inorder          false # run pipeline with in-order issue
-issue:wrongpath         true # issue instructions down wrong execution paths
-commit:width               4 # instruction commit B/W (insts/cycle)
-ruu:size                  16 # register update unit (RUU) size
-lsq:size                   8 # load/store queue (LSQ) size
-cache:dl1       dl1:32:64:8:f # l1 data cache config, i.e., {<config>|none}
-cache:dl1lat               1 # l1 data cache hit latency (in cycles)
-cache:dl2       dl2:256:64:8:f # l2 data cache config, i.e., {<config>|none}
-cache:dl2lat               2 # l2 data cache hit latency (in cycles)
-cache:il1       il1:32:64:8:f # l1 inst cache config, i.e., {<config>|dl1|dl2|none}
-cache:il1lat               1 # l1 instruction cache hit latency (in cycles)
-cache:il2                dl2 # l2 instruction cache config, i.e., {<config>|dl2|none}
-cache:il2lat               2 # l2 instruction cache hit latency (in cycles)
-cache:flush            false # flush caches on system calls
-cache:icompress        false # convert 64-bit inst addresses to 32-bit inst equivalents
-mem:lat         103 1 # memory access latency (<first_chunk> <inter_chunk>)
-mem:width                  8 # memory access bus width (in bytes)
-tlb:itlb        itlb:16:4096:4:l # instruction TLB config, i.e., {<config>|none}
-tlb:dtlb        dtlb:32:4096:4:l # data TLB config, i.e., {<config>|none}
-tlb:lat                   30 # inst/data TLB miss latency (in cycles)
-res:ialu                   8 # total number of integer ALU's available
-res:imult                  8 # total number of integer multiplier/dividers available
-res:memport                8 # total number of memory system ports available (to CPU)
-res:fpalu                  8 # total number of floating point ALU's available
-res:fpmult                 8 # total number of floating point multiplier/dividers available
# -pcstat              <null> # profile stat(s) against text addr's (mult uses ok)
-bugcompat              false # operate in backward-compatible bugs mode (for testing only)

  Pipetrace range arguments are formatted as follows:

    {{@|#}<start>}:{{@|#|+}<end>}

  Both ends of the range are optional, if neither are specified, the entire
  execution is traced.  Ranges that start with a `@' designate an address
  range to be traced, those that start with an `#' designate a cycle count
  range.  All other range values represent an instruction count range.  The
  second argument, if specified with a `+', indicates a value relative
  to the first argument, e.g., 1000:+100 == 1000:1100.  Program symbols may
  be used in all contexts.

    Examples:   -ptrace FOO.trc #0:#1000
                -ptrace BAR.trc @2000:
                -ptrace BLAH.trc :1500
                -ptrace UXXE.trc :
                -ptrace FOOBAR.trc @main:+278

  Branch predictor configuration examples for 2-level predictor:
    Configurations:   N, M, W, X
      N   # entries in first level (# of shift register(s))
      W   width of shift register(s)
      M   # entries in 2nd level (# of counters, or other FSM)
      X   (yes-1/no-0) xor history and address for 2nd level index
    Sample predictors:
      GAg     : 1, W, 2^W, 0
      GAp     : 1, W, M (M > 2^W), 0
      PAg     : N, W, 2^W, 0
      PAp     : N, W, M (M == 2^(N+W)), 0
      gshare  : 1, W, 2^W, 1
  Predictor `comb' combines a bimodal and a 2-level predictor.

  The cache config parameter <config> has the following format:

    <name>:<nsets>:<bsize>:<assoc>:<repl>

    <name>   - name of the cache being defined
    <nsets>  - number of sets in the cache
    <bsize>  - block size of the cache
    <assoc>  - associativity of the cache
    <repl>   - block replacement strategy, 'l'-LRU, 'f'-FIFO, 'r'-random

    Examples:   -cache:dl1 dl1:4096:32:1:l
                -dtlb dtlb:128:4096:32:r

  Cache levels can be unified by pointing a level of the instruction cache
  hierarchy at the data cache hiearchy using the "dl1" and "dl2" cache
  configuration arguments.  Most sensible combinations are supported, e.g.,

    A unified l2 cache (il2 is pointed at dl2):
      -cache:il1 il1:128:64:1:l -cache:il2 dl2
      -cache:dl1 dl1:256:32:1:l -cache:dl2 ul2:1024:64:2:l

    Or, a fully unified cache hierarchy (il1 pointed at dl1):
      -cache:il1 dl1
      -cache:dl1 ul1:256:32:1:l -cache:dl2 ul2:1024:64:2:l



sim: ** starting performance simulation **

sim: ** simulation statistics **
sim_num_insn              100000002 # total number of instructions committed
sim_num_refs               38174849 # total number of loads and stores committed
sim_num_loads              26517388 # total number of loads committed
sim_num_stores         11657461.0000 # total number of stores committed
sim_num_branches           10608449 # total number of branches committed
sim_elapsed_time                 97 # total simulation time in seconds
sim_inst_rate          1030927.8557 # simulation speed (in insts/sec)
sim_total_insn            100000002 # total number of instructions executed
sim_total_refs             38174849 # total number of loads and stores executed
sim_total_loads            26517388 # total number of loads executed
sim_total_stores       11657461.0000 # total number of stores executed
sim_total_branches         10608449 # total number of branches executed
sim_cycle                  57179151 # total simulation time in cycles
sim_IPC                      1.7489 # instructions per cycle
sim_CPI                      0.5718 # cycles per instruction
sim_exec_BW                  1.7489 # total instructions (mis-spec + committed) per cycle
sim_IPB                      9.4264 # instruction per branch
IFQ_count                 228663451 # cumulative IFQ occupancy
IFQ_fcount                 57165836 # cumulative IFQ full count
ifq_occupancy                3.9991 # avg IFQ occupancy (insn's)
ifq_rate                     1.7489 # avg IFQ dispatch rate (insn/cycle)
ifq_latency                  2.2866 # avg IFQ occupant latency (cycle's)
ifq_full                     0.9998 # fraction of time (cycle's) IFQ was full
RUU_count                 859738358 # cumulative RUU occupancy
RUU_fcount                 37462051 # cumulative RUU full count
ruu_occupancy               15.0359 # avg RUU occupancy (insn's)
ruu_rate                     1.7489 # avg RUU dispatch rate (insn/cycle)
ruu_latency                  8.5974 # avg RUU occupant latency (cycle's)
ruu_full                     0.6552 # fraction of time (cycle's) RUU was full
LSQ_count                 360161816 # cumulative LSQ occupancy
LSQ_fcount                 15519619 # cumulative LSQ full count
lsq_occupancy                6.2988 # avg LSQ occupancy (insn's)
lsq_rate                     1.7489 # avg LSQ dispatch rate (insn/cycle)
lsq_latency                  3.6016 # avg LSQ occupant latency (cycle's)
lsq_full                     0.2714 # fraction of time (cycle's) LSQ was full
sim_slip                 1358074974 # total number of slip cycles
avg_sim_slip                13.5807 # the average slip between issue and retirement
il1.accesses              110360942 # total number of accesses
il1.hits                  110360821 # total number of hits
il1.misses                      121 # total number of misses
il1.replacements                  0 # total number of replacements
il1.writebacks                    0 # total number of writebacks
il1.invalidations                 0 # total number of invalidations
il1.miss_rate                0.0000 # miss rate (i.e., misses/ref)
il1.repl_rate                0.0000 # replacement rate (i.e., repls/ref)
il1.wb_rate                  0.0000 # writeback rate (i.e., wrbks/ref)
il1.inv_rate                 0.0000 # invalidation rate (i.e., invs/ref)
dl1.accesses               38156127 # total number of accesses
dl1.hits                   37826010 # total number of hits
dl1.misses                   330117 # total number of misses
dl1.replacements             329861 # total number of replacements
dl1.writebacks                40589 # total number of writebacks
dl1.invalidations                 0 # total number of invalidations
dl1.miss_rate                0.0087 # miss rate (i.e., misses/ref)
dl1.repl_rate                0.0086 # replacement rate (i.e., repls/ref)
dl1.wb_rate                  0.0011 # writeback rate (i.e., wrbks/ref)
dl1.inv_rate                 0.0000 # invalidation rate (i.e., invs/ref)
dl2.accesses                 370827 # total number of accesses
dl2.hits                     176773 # total number of hits
dl2.misses                   194054 # total number of misses
dl2.replacements             192006 # total number of replacements
dl2.writebacks                12662 # total number of writebacks
dl2.invalidations                 0 # total number of invalidations
dl2.miss_rate                0.5233 # miss rate (i.e., misses/ref)
dl2.repl_rate                0.5178 # replacement rate (i.e., repls/ref)
dl2.wb_rate                  0.0341 # writeback rate (i.e., wrbks/ref)
dl2.inv_rate                 0.0000 # invalidation rate (i.e., invs/ref)
itlb.accesses             110360942 # total number of accesses
itlb.hits                 110360937 # total number of hits
itlb.misses                       5 # total number of misses
itlb.replacements                 0 # total number of replacements
itlb.writebacks                   0 # total number of writebacks
itlb.invalidations                0 # total number of invalidations
itlb.miss_rate               0.0000 # miss rate (i.e., misses/ref)
itlb.repl_rate               0.0000 # replacement rate (i.e., repls/ref)
itlb.wb_rate                 0.0000 # writeback rate (i.e., wrbks/ref)
itlb.inv_rate                0.0000 # invalidation rate (i.e., invs/ref)
dtlb.accesses              38174845 # total number of accesses
dtlb.hits                  38172983 # total number of hits
dtlb.misses                    1862 # total number of misses
dtlb.replacements              1734 # total number of replacements
dtlb.writebacks                   0 # total number of writebacks
dtlb.invalidations                0 # total number of invalidations
dtlb.miss_rate               0.0000 # miss rate (i.e., misses/ref)
dtlb.repl_rate               0.0000 # replacement rate (i.e., repls/ref)
dtlb.wb_rate                 0.0000 # writeback rate (i.e., wrbks/ref)
dtlb.inv_rate                0.0000 # invalidation rate (i.e., invs/ref)
rename_power           23898911.6746 # total power usage of rename unit
bpred_power            159903086.2249 # total power usage of bpred unit
window_power           126041112.8354 # total power usage of instruction window
lsq_power              365330841.8615 # total power usage of load/store queue
regfile_power          204270921.8390 # total power usage of arch. regfile
icache_power           173399380.9917 # total power usage of icache
dcache_power           1472636634.6133 # total power usage of dcache
dcache2_power          177425577.2740 # total power usage of dcache2
alu_power              2166080660.2047 # total power usage of alu
falu_power             1633156052.1347 # total power usage of falu
resultbus_power        239053151.1025 # total power usage of resultbus
clock_power            2227083288.3243 # total power usage of clock
avg_rename_power             0.4180 # avg power usage of rename unit
avg_bpred_power              2.7965 # avg power usage of bpred unit
avg_window_power             2.2043 # avg power usage of instruction window
avg_lsq_power                6.3892 # avg power usage of lsq
avg_regfile_power            3.5725 # avg power usage of arch. regfile
avg_icache_power             3.0326 # avg power usage of icache
avg_dcache_power            25.7548 # avg power usage of dcache
avg_dcache2_power            3.1030 # avg power usage of dcache2
avg_alu_power               37.8824 # avg power usage of alu
avg_falu_power              28.5621 # avg power usage of falu
avg_resultbus_power          4.1808 # avg power usage of resultbus
avg_clock_power             38.9492 # avg power usage of clock
fetch_stage_power      333302467.2166 # total power usage of fetch stage
dispatch_stage_power   23898911.6746 # total power usage of dispatch stage
issue_stage_power      4546567977.8913 # total power usage of issue stage
avg_fetch_power              5.8291 # average power of fetch unit per cycle
avg_dispatch_power           0.4180 # average power of dispatch unit per cycle
avg_issue_power             79.5144 # average power of issue unit per cycle
total_power            7335123566.9458 # total power per cycle
avg_total_power_cycle      128.2832 # average total power per cycle
avg_total_power_cycle_nofp_nod2      96.6181 # average total power per cycle
avg_total_power_insn        73.3512 # average total power per insn
avg_total_power_insn_nofp_nod2      55.2454 # average total power per insn
rename_power_cc1       14383084.3348 # total power usage of rename unit_cc1
bpred_power_cc1              0.0000 # total power usage of bpred unit_cc1
window_power_cc1       87448877.2193 # total power usage of instruction window_cc1
lsq_power_cc1          82657081.7854 # total power usage of lsq_cc1
regfile_power_cc1      112968849.3994 # total power usage of arch. regfile_cc1
icache_power_cc1       104357187.6163 # total power usage of icache_cc1
dcache_power_cc1       624826079.8032 # total power usage of dcache_cc1
dcache2_power_cc1      1022747.3500 # total power usage of dcache2_cc1
alu_power_cc1          340953266.4313 # total power usage of alu_cc1
resultbus_power_cc1    146919610.8914 # total power usage of resultbus_cc1
clock_power_cc1        599036458.7180 # total power usage of clock_cc1
avg_rename_power_cc1         0.2515 # avg power usage of rename unit_cc1
avg_bpred_power_cc1          0.0000 # avg power usage of bpred unit_cc1
avg_window_power_cc1         1.5294 # avg power usage of instruction window_cc1
avg_lsq_power_cc1            1.4456 # avg power usage of lsq_cc1
avg_regfile_power_cc1        1.9757 # avg power usage of arch. regfile_cc1
avg_icache_power_cc1         1.8251 # avg power usage of icache_cc1
avg_dcache_power_cc1        10.9275 # avg power usage of dcache_cc1
avg_dcache2_power_cc1        0.0179 # avg power usage of dcache2_cc1
avg_alu_power_cc1            5.9629 # avg power usage of alu_cc1
avg_resultbus_power_cc1       2.5695 # avg power usage of resultbus_cc1
avg_clock_power_cc1         10.4765 # avg power usage of clock_cc1
fetch_stage_power_cc1  104357187.6163 # total power usage of fetch stage_cc1
dispatch_stage_power_cc1 14383084.3348 # total power usage of dispatch stage_cc1
issue_stage_power_cc1  1283827663.4807 # total power usage of issue stage_cc1
avg_fetch_power_cc1          1.8251 # average power of fetch unit per cycle_cc1
avg_dispatch_power_cc1       0.2515 # average power of dispatch unit per cycle_cc1
avg_issue_power_cc1         22.4527 # average power of issue unit per cycle_cc1
total_power_cycle_cc1  2114573243.5491 # total power per cycle_cc1
avg_total_power_cycle_cc1      36.9815 # average total power per cycle_cc1
avg_total_power_insn_cc1      21.1457 # average total power per insn_cc1
rename_power_cc2       10449137.3759 # total power usage of rename unit_cc2
bpred_power_cc2              0.0000 # total power usage of bpred unit_cc2
window_power_cc2       81751380.5051 # total power usage of instruction window_cc2
lsq_power_cc2          13906252.3443 # total power usage of lsq_cc2
regfile_power_cc2      38871320.1820 # total power usage of arch. regfile_cc2
icache_power_cc2       104357187.6163 # total power usage of icache_cc2
dcache_power_cc2       122837847.0173 # total power usage of dcache_cc2
dcache2_power_cc2       143833.4459 # total power usage of dcache2_cc2
alu_power_cc2          116499809.9433 # total power usage of alu_cc2
resultbus_power_cc2    113575580.1039 # total power usage of resultbus_cc2
clock_power_cc2        223012302.1727 # total power usage of clock_cc2
avg_rename_power_cc2         0.1827 # avg power usage of rename unit_cc2
avg_bpred_power_cc2          0.0000 # avg power usage of bpred unit_cc2
avg_window_power_cc2         1.4297 # avg power usage of instruction window_cc2
avg_lsq_power_cc2            0.2432 # avg power usage of instruction lsq_cc2
avg_regfile_power_cc2        0.6798 # avg power usage of arch. regfile_cc2
avg_icache_power_cc2         1.8251 # avg power usage of icache_cc2
avg_dcache_power_cc2         2.1483 # avg power usage of dcache_cc2
avg_dcache2_power_cc2        0.0025 # avg power usage of dcache2_cc2
avg_alu_power_cc2            2.0375 # avg power usage of alu_cc2
avg_resultbus_power_cc2       1.9863 # avg power usage of resultbus_cc2
avg_clock_power_cc2          3.9002 # avg power usage of clock_cc2
fetch_stage_power_cc2  104357187.6163 # total power usage of fetch stage_cc2
dispatch_stage_power_cc2 10449137.3759 # total power usage of dispatch stage_cc2
issue_stage_power_cc2  448714703.3597 # total power usage of issue stage_cc2
avg_fetch_power_cc2          1.8251 # average power of fetch unit per cycle_cc2
avg_dispatch_power_cc2       0.1827 # average power of dispatch unit per cycle_cc2
avg_issue_power_cc2          7.8475 # average power of issue unit per cycle_cc2
total_power_cycle_cc2  825404650.7066 # total power per cycle_cc2
avg_total_power_cycle_cc2      14.4354 # average total power per cycle_cc2
avg_total_power_insn_cc2       8.2540 # average total power per insn_cc2
rename_power_cc3       11400720.1068 # total power usage of rename unit_cc3
bpred_power_cc3        15990308.6359 # total power usage of bpred unit_cc3
window_power_cc3       85963247.0276 # total power usage of instruction window_cc3
lsq_power_cc3          41906128.7485 # total power usage of lsq_cc3
regfile_power_cc3      46779916.0354 # total power usage of arch. regfile_cc3
icache_power_cc3       111261406.9289 # total power usage of icache_cc3
dcache_power_cc3       207618902.5260 # total power usage of dcache_cc3
dcache2_power_cc3      17784116.4494 # total power usage of dcache2_cc3
alu_power_cc3          299012548.6522 # total power usage of alu_cc3
resultbus_power_cc3    121813491.5542 # total power usage of resultbus_cc3
clock_power_cc3        384989562.8332 # total power usage of clock_cc3
avg_rename_power_cc3         0.1994 # avg power usage of rename unit_cc3
avg_bpred_power_cc3          0.2797 # avg power usage of bpred unit_cc3
avg_window_power_cc3         1.5034 # avg power usage of instruction window_cc3
avg_lsq_power_cc3            0.7329 # avg power usage of instruction lsq_cc3
avg_regfile_power_cc3        0.8181 # avg power usage of arch. regfile_cc3
avg_icache_power_cc3         1.9458 # avg power usage of icache_cc3
avg_dcache_power_cc3         3.6310 # avg power usage of dcache_cc3
avg_dcache2_power_cc3        0.3110 # avg power usage of dcache2_cc3
avg_alu_power_cc3            5.2294 # avg power usage of alu_cc3
avg_resultbus_power_cc3       2.1304 # avg power usage of resultbus_cc3
avg_clock_power_cc3          6.7330 # avg power usage of clock_cc3
fetch_stage_power_cc3  127251715.5648 # total power usage of fetch stage_cc3
dispatch_stage_power_cc3 11400720.1068 # total power usage of dispatch stage_cc3
issue_stage_power_cc3  774098434.9579 # total power usage of issue stage_cc3
avg_fetch_power_cc3          2.2255 # average power of fetch unit per cycle_cc3
avg_dispatch_power_cc3       0.1994 # average power of dispatch unit per cycle_cc3
avg_issue_power_cc3         13.5381 # average power of issue unit per cycle_cc3
total_power_cycle_cc3  1344520349.4981 # total power per cycle_cc3
avg_total_power_cycle_cc3      23.5142 # average total power per cycle_cc3
avg_total_power_insn_cc3      13.4452 # average total power per insn_cc3
total_rename_access       100000002 # total number accesses of rename unit
total_bpred_access                0 # total number accesses of bpred unit
total_window_access       375098198 # total number accesses of instruction window
total_lsq_access           38193565 # total number accesses of load/store queue
total_regfile_access      145324411 # total number accesses of arch. regfile
total_icache_access       110360942 # total number accesses of icache
total_dcache_access        38156127 # total number accesses of dcache
total_dcache2_access         370827 # total number accesses of dcache2
total_alu_access           99996926 # total number accesses of alu
total_resultbus_access    115908933 # total number accesses of resultbus
avg_rename_access            1.7489 # avg number accesses of rename unit
avg_bpred_access             0.0000 # avg number accesses of bpred unit
avg_window_access            6.5601 # avg number accesses of instruction window
avg_lsq_access               0.6680 # avg number accesses of lsq
avg_regfile_access           2.5416 # avg number accesses of arch. regfile
avg_icache_access            1.9301 # avg number accesses of icache
avg_dcache_access            0.6673 # avg number accesses of dcache
avg_dcache2_access           0.0065 # avg number accesses of dcache2
avg_alu_access               1.7488 # avg number accesses of alu
avg_resultbus_access         2.0271 # avg number accesses of resultbus
max_rename_access                 4 # max number accesses of rename unit
max_bpred_access                  0 # max number accesses of bpred unit
max_window_access                17 # max number accesses of instruction window
max_lsq_access                    5 # max number accesses of load/store queue
max_regfile_access               12 # max number accesses of arch. regfile
max_icache_access                 4 # max number accesses of icache
max_dcache_access                 5 # max number accesses of dcache
max_dcache2_access                4 # max number accesses of dcache2
max_alu_access                    4 # max number accesses of alu
max_resultbus_access              8 # max number accesses of resultbus
max_cycle_power_cc1         90.7595 # maximum cycle power usage of cc1
max_cycle_power_cc2         33.0851 # maximum cycle power usage of cc2
max_cycle_power_cc3         39.6384 # maximum cycle power usage of cc3
sim_invalid_addrs                 0 # total non-speculative bogus addresses seen (debug var)
ld_text_base           0x0120000000 # program text (code) segment base
ld_text_size                 196608 # program text (code) size in bytes
ld_data_base           0x0140000000 # program initialized data segment base
ld_data_size                 146544 # program init'ed `.data' and uninit'ed `.bss' size in bytes
ld_stack_base          0x011ff9b000 # program stack segment base (highest address in stack)
ld_stack_size                 16384 # program initial stack size
ld_prog_entry          0x012000a7e0 # program entry point (initial PC)
ld_environ_base        0x011ff96e20 # program environment base address address
ld_target_big_endian              0 # target executable endian-ness, non-zero if big endian
mem.page_count                22960 # total number of pages allocated
mem.page_mem                183680k # total size of memory pages allocated
mem.ptab_misses             1455214 # total first level page table misses
mem.ptab_accesses         821982644 # total page table accesses
mem.ptab_miss_rate           0.0018 # first level page table miss rate

