sim-outorder: SimpleScalar/Alpha Tool Set version 3.0 of August, 2003.
Copyright (c) 1994-2003 by Todd M. Austin, Ph.D. and SimpleScalar, LLC.
All Rights Reserved. This version of SimpleScalar is licensed for academic
non-commercial use.  No portion of this work may be used by any commercial
entity, or for any commercial purpose, without the prior written permission
of SimpleScalar, LLC (info@simplescalar.com).


Processor Parameters:
Issue Width: 4
Window Size: 16
Number of Virtual Registers: 32
Number of Physical Registers: 16
Datapath Width: 64
Total Power Consumption: 73.6227
Branch Predictor Power Consumption: 3.33775  (4.66%)
 branch target buffer power (W): 2.49493
 local predict power (W): 0.576035
 global predict power (W): 0.0996078
 chooser power (W): 0.0702439
 RAS power (W): 0.0969383
Rename Logic Power Consumption: 0.417965  (0.584%)
 Instruction Decode Power (W): 0.0159915
 RAT decode_power (W): 0.113514
 RAT wordline_power (W): 0.0307815
 RAT bitline_power (W): 0.246771
 DCL Comparators (W): 0.0109075
Instruction Window Power Consumption: 2.20432  (3.08%)
 tagdrive (W): 0.0943488
 tagmatch (W): 0.033695
 Selection Logic (W): 0.0134217
 decode_power (W): 0.0532503
 wordline_power (W): 0.0844643
 bitline_power (W): 1.92514
Load/Store Queue Power Consumption: 0.96318  (1.34%)
 tagdrive (W): 0.457232
 tagmatch (W): 0.100774
 decode_power (W): 0.00799577
 wordline_power (W): 0.0150119
 bitline_power (W): 0.382166
Arch. Register File Power Consumption: 3.57247  (4.99%)
 decode_power (W): 0.113514
 wordline_power (W): 0.0844643
 bitline_power (W): 3.37449
Result Bus Power Consumption: 2.29754  (3.21%)
Total Clock Power: 27.314  (38.1%)
Int ALU Power: 4.66013  (6.51%)
FP ALU Power: 14.281  (19.9%)
Instruction Cache Power Consumption: 2.76773  (3.86%)
 decode_power (W): 0.151353
 wordline_power (W): 0.180479
 bitline_power (W): 1.42251
 senseamp_power (W): 0.768
 tagarray_power (W): 0.245382
Itlb_power (W): 0.264834 (0.37%)
Data Cache Power Consumption: 5.53546  (7.73%)
 decode_power (W): 0.302705
 wordline_power (W): 0.360958
 bitline_power (W): 2.84503
 senseamp_power (W): 1.536
 tagarray_power (W): 0.490764
Dtlb_power (W): 0.903238 (1.26%)
Level 2 Cache Power Consumption: 3.10298 (4.33%)
 decode_power (W): 0.19487
 wordline_power (W): 0.0430878
 bitline_power (W): 1.77274
 senseamp_power (W): 0.192
 tagarray_power (W): 0.900275
sim: loading EIO file: ../benchmarks/164.gzip.log-ref.eio.gz
sim: command line: ./sim-outorder -config ../configs/current.config ../benchmarks/164.gzip.log-ref.eio.gz 

sim: simulation started @ Mon Nov 23 20:06:35 2015, options follow:

sim-outorder: This simulator implements a very detailed out-of-order issue
superscalar processor with a two-level memory system and speculative
execution support.  This simulator is a performance simulator, tracking the
latency of all pipeline operations.

# -config                     # load configuration from a file
# -dumpconfig                 # dump configuration to a file
# -h                    false # print help message    
# -v                    false # verbose operation     
# -d                    false # enable debug message  
# -i                    false # start in Dlite debugger
-seed                       1 # random number generator seed (0 for timer seed)
# -q                    false # initialize and terminate immediately
# -chkpt               <null> # restore EIO trace execution from <fname>
# -redir:sim     ../results/08_04_2lbp/164.gzip.log-ref.eio.gz.out # redirect simulator output to file (non-interactive only)
# -redir:prog       /dev/null # redirect simulated program output to file
-nice                       0 # simulator scheduling priority
-freq            600000000.0000 # frequency             
-max:inst           100000000 # maximum number of inst's to execute
-fastfwd                    0 # number of insts skipped before timing starts
# -ptrace              <null> # generate pipetrace, i.e., <fname|stdout|stderr> <range>
-fetch:ifqsize              4 # instruction fetch queue size (in insts)
-fetch:mplat                3 # extra branch mis-prediction latency
-fetch:speed                1 # speed of front-end of machine relative to execution core
-bpred                   2lev # branch predictor type {nottaken|taken|perfect|bimod|2lev|comb}
-bpred:bimod     2048 # bimodal predictor config (<table size>)
-bpred:2lev      1 16384 8 0 # 2-level predictor config (<l1size> <l2size> <hist_size> <xor>)
-bpred:comb      1024 # combining predictor config (<meta_table_size>)
-bpred:ras                  8 # return address stack size (0 for no return stack)
-bpred:btb       512 4 # BTB config (<num_sets> <associativity>)
# -bpred:spec_update       <null> # speculative predictors update in {ID|WB} (default non-spec)
-decode:width               4 # instruction decode B/W (insts/cycle)
-issue:width                4 # instruction issue B/W (insts/cycle)
-issue:inorder          false # run pipeline with in-order issue
-issue:wrongpath         true # issue instructions down wrong execution paths
-commit:width               4 # instruction commit B/W (insts/cycle)
-ruu:size                  16 # register update unit (RUU) size
-lsq:size                   8 # load/store queue (LSQ) size
-cache:dl1       dl1:32:64:8:f # l1 data cache config, i.e., {<config>|none}
-cache:dl1lat               1 # l1 data cache hit latency (in cycles)
-cache:dl2       dl2:256:64:8:f # l2 data cache config, i.e., {<config>|none}
-cache:dl2lat               2 # l2 data cache hit latency (in cycles)
-cache:il1       il1:32:64:8:f # l1 inst cache config, i.e., {<config>|dl1|dl2|none}
-cache:il1lat               1 # l1 instruction cache hit latency (in cycles)
-cache:il2                dl2 # l2 instruction cache config, i.e., {<config>|dl2|none}
-cache:il2lat               2 # l2 instruction cache hit latency (in cycles)
-cache:flush            false # flush caches on system calls
-cache:icompress        false # convert 64-bit inst addresses to 32-bit inst equivalents
-mem:lat         103 1 # memory access latency (<first_chunk> <inter_chunk>)
-mem:width                  8 # memory access bus width (in bytes)
-tlb:itlb        itlb:16:4096:4:l # instruction TLB config, i.e., {<config>|none}
-tlb:dtlb        dtlb:32:4096:4:l # data TLB config, i.e., {<config>|none}
-tlb:lat                   30 # inst/data TLB miss latency (in cycles)
-res:ialu                   4 # total number of integer ALU's available
-res:imult                  1 # total number of integer multiplier/dividers available
-res:memport                2 # total number of memory system ports available (to CPU)
-res:fpalu                  4 # total number of floating point ALU's available
-res:fpmult                 1 # total number of floating point multiplier/dividers available
# -pcstat              <null> # profile stat(s) against text addr's (mult uses ok)
-bugcompat              false # operate in backward-compatible bugs mode (for testing only)

  Pipetrace range arguments are formatted as follows:

    {{@|#}<start>}:{{@|#|+}<end>}

  Both ends of the range are optional, if neither are specified, the entire
  execution is traced.  Ranges that start with a `@' designate an address
  range to be traced, those that start with an `#' designate a cycle count
  range.  All other range values represent an instruction count range.  The
  second argument, if specified with a `+', indicates a value relative
  to the first argument, e.g., 1000:+100 == 1000:1100.  Program symbols may
  be used in all contexts.

    Examples:   -ptrace FOO.trc #0:#1000
                -ptrace BAR.trc @2000:
                -ptrace BLAH.trc :1500
                -ptrace UXXE.trc :
                -ptrace FOOBAR.trc @main:+278

  Branch predictor configuration examples for 2-level predictor:
    Configurations:   N, M, W, X
      N   # entries in first level (# of shift register(s))
      W   width of shift register(s)
      M   # entries in 2nd level (# of counters, or other FSM)
      X   (yes-1/no-0) xor history and address for 2nd level index
    Sample predictors:
      GAg     : 1, W, 2^W, 0
      GAp     : 1, W, M (M > 2^W), 0
      PAg     : N, W, 2^W, 0
      PAp     : N, W, M (M == 2^(N+W)), 0
      gshare  : 1, W, 2^W, 1
  Predictor `comb' combines a bimodal and a 2-level predictor.

  The cache config parameter <config> has the following format:

    <name>:<nsets>:<bsize>:<assoc>:<repl>

    <name>   - name of the cache being defined
    <nsets>  - number of sets in the cache
    <bsize>  - block size of the cache
    <assoc>  - associativity of the cache
    <repl>   - block replacement strategy, 'l'-LRU, 'f'-FIFO, 'r'-random

    Examples:   -cache:dl1 dl1:4096:32:1:l
                -dtlb dtlb:128:4096:32:r

  Cache levels can be unified by pointing a level of the instruction cache
  hierarchy at the data cache hiearchy using the "dl1" and "dl2" cache
  configuration arguments.  Most sensible combinations are supported, e.g.,

    A unified l2 cache (il2 is pointed at dl2):
      -cache:il1 il1:128:64:1:l -cache:il2 dl2
      -cache:dl1 dl1:256:32:1:l -cache:dl2 ul2:1024:64:2:l

    Or, a fully unified cache hierarchy (il1 pointed at dl1):
      -cache:il1 dl1
      -cache:dl1 ul1:256:32:1:l -cache:dl2 ul2:1024:64:2:l



sim: ** starting performance simulation **

sim: ** simulation statistics **
sim_num_insn              100000001 # total number of instructions committed
sim_num_refs               29770710 # total number of loads and stores committed
sim_num_loads              24694252 # total number of loads committed
sim_num_stores         5076458.0000 # total number of stores committed
sim_num_branches           11683348 # total number of branches committed
sim_elapsed_time                135 # total simulation time in seconds
sim_inst_rate           740740.7481 # simulation speed (in insts/sec)
sim_total_insn            107125565 # total number of instructions executed
sim_total_refs             32116397 # total number of loads and stores executed
sim_total_loads            26917064 # total number of loads executed
sim_total_stores       5199333.0000 # total number of stores executed
sim_total_branches         12610083 # total number of branches executed
sim_cycle                  70176763 # total simulation time in cycles
sim_IPC                      1.4250 # instructions per cycle
sim_CPI                      0.7018 # cycles per instruction
sim_exec_BW                  1.5265 # total instructions (mis-spec + committed) per cycle
sim_IPB                      8.5592 # instruction per branch
IFQ_count                 255634396 # cumulative IFQ occupancy
IFQ_fcount                 61628866 # cumulative IFQ full count
ifq_occupancy                3.6427 # avg IFQ occupancy (insn's)
ifq_rate                     1.5265 # avg IFQ dispatch rate (insn/cycle)
ifq_latency                  2.3863 # avg IFQ occupant latency (cycle's)
ifq_full                     0.8782 # fraction of time (cycle's) IFQ was full
RUU_count                1029702065 # cumulative RUU occupancy
RUU_fcount                 49019553 # cumulative RUU full count
ruu_occupancy               14.6730 # avg RUU occupancy (insn's)
ruu_rate                     1.5265 # avg RUU dispatch rate (insn/cycle)
ruu_latency                  9.6121 # avg RUU occupant latency (cycle's)
ruu_full                     0.6985 # fraction of time (cycle's) RUU was full
LSQ_count                 339068900 # cumulative LSQ occupancy
LSQ_fcount                  9116274 # cumulative LSQ full count
lsq_occupancy                4.8316 # avg LSQ occupancy (insn's)
lsq_rate                     1.5265 # avg LSQ dispatch rate (insn/cycle)
lsq_latency                  3.1652 # avg LSQ occupant latency (cycle's)
lsq_full                     0.1299 # fraction of time (cycle's) LSQ was full
sim_slip                 1450011447 # total number of slip cycles
avg_sim_slip                14.5001 # the average slip between issue and retirement
bpred_2lev.lookups         12951951 # total number of bpred lookups
bpred_2lev.updates         11683346 # total number of updates
bpred_2lev.addr_hits       11054318 # total number of address-predicted hits
bpred_2lev.dir_hits        11054486 # total number of direction-predicted hits (includes addr-hits)
bpred_2lev.misses            628860 # total number of misses
bpred_2lev.jr_hits           153999 # total number of address-predicted hits for JR's
bpred_2lev.jr_seen           154049 # total number of JR's seen
bpred_2lev.jr_non_ras_hits.PP           16 # total number of address-predicted hits for non-RAS JR's
bpred_2lev.jr_non_ras_seen.PP           17 # total number of non-RAS JR's seen
bpred_2lev.bpred_addr_rate    0.9462 # branch address-prediction rate (i.e., addr-hits/updates)
bpred_2lev.bpred_dir_rate    0.9462 # branch direction-prediction rate (i.e., all-hits/updates)
bpred_2lev.bpred_jr_rate    0.9997 # JR address-prediction rate (i.e., JR addr-hits/JRs seen)
bpred_2lev.bpred_jr_non_ras_rate.PP    0.9412 # non-RAS JR addr-pred rate (ie, non-RAS JR hits/JRs seen)
bpred_2lev.retstack_pushes       197833 # total number of address pushed onto ret-addr stack
bpred_2lev.retstack_pops       263630 # total number of address popped off of ret-addr stack
bpred_2lev.used_ras.PP       154032 # total number of RAS predictions used
bpred_2lev.ras_hits.PP       153983 # total number of RAS hits
bpred_2lev.ras_rate.PP    0.9997 # RAS prediction rate (i.e., RAS hits/used RAS)
il1.accesses              109590978 # total number of accesses
il1.hits                  109590814 # total number of hits
il1.misses                      164 # total number of misses
il1.replacements                  0 # total number of replacements
il1.writebacks                    0 # total number of writebacks
il1.invalidations                 0 # total number of invalidations
il1.miss_rate                0.0000 # miss rate (i.e., misses/ref)
il1.repl_rate                0.0000 # replacement rate (i.e., repls/ref)
il1.wb_rate                  0.0000 # writeback rate (i.e., wrbks/ref)
il1.inv_rate                 0.0000 # invalidation rate (i.e., invs/ref)
dl1.accesses               31059052 # total number of accesses
dl1.hits                   26361673 # total number of hits
dl1.misses                  4697379 # total number of misses
dl1.replacements            4697123 # total number of replacements
dl1.writebacks               670642 # total number of writebacks
dl1.invalidations                 0 # total number of invalidations
dl1.miss_rate                0.1512 # miss rate (i.e., misses/ref)
dl1.repl_rate                0.1512 # replacement rate (i.e., repls/ref)
dl1.wb_rate                  0.0216 # writeback rate (i.e., wrbks/ref)
dl1.inv_rate                 0.0000 # invalidation rate (i.e., invs/ref)
dl2.accesses                5368185 # total number of accesses
dl2.hits                    5154065 # total number of hits
dl2.misses                   214120 # total number of misses
dl2.replacements             212072 # total number of replacements
dl2.writebacks               109159 # total number of writebacks
dl2.invalidations                 0 # total number of invalidations
dl2.miss_rate                0.0399 # miss rate (i.e., misses/ref)
dl2.repl_rate                0.0395 # replacement rate (i.e., repls/ref)
dl2.wb_rate                  0.0203 # writeback rate (i.e., wrbks/ref)
dl2.inv_rate                 0.0000 # invalidation rate (i.e., invs/ref)
itlb.accesses             109590978 # total number of accesses
itlb.hits                 109590968 # total number of hits
itlb.misses                      10 # total number of misses
itlb.replacements                 0 # total number of replacements
itlb.writebacks                   0 # total number of writebacks
itlb.invalidations                0 # total number of invalidations
itlb.miss_rate               0.0000 # miss rate (i.e., misses/ref)
itlb.repl_rate               0.0000 # replacement rate (i.e., repls/ref)
itlb.wb_rate                 0.0000 # writeback rate (i.e., wrbks/ref)
itlb.inv_rate                0.0000 # invalidation rate (i.e., invs/ref)
dtlb.accesses              31085174 # total number of accesses
dtlb.hits                  31084949 # total number of hits
dtlb.misses                     225 # total number of misses
dtlb.replacements                97 # total number of replacements
dtlb.writebacks                   0 # total number of writebacks
dtlb.invalidations                0 # total number of invalidations
dtlb.miss_rate               0.0000 # miss rate (i.e., misses/ref)
dtlb.repl_rate               0.0000 # replacement rate (i.e., repls/ref)
dtlb.wb_rate                 0.0000 # writeback rate (i.e., wrbks/ref)
dtlb.inv_rate                0.0000 # invalidation rate (i.e., invs/ref)
rename_power           29331464.8994 # total power usage of rename unit
bpred_power            234232687.0085 # total power usage of bpred unit
window_power           154692001.3479 # total power usage of instruction window
lsq_power              67592853.8065 # total power usage of load/store queue
regfile_power          250704528.0170 # total power usage of arch. regfile
icache_power           212815459.0179 # total power usage of icache
dcache_power           451846828.2968 # total power usage of dcache
dcache2_power          217756865.3652 # total power usage of dcache2
alu_power              1329230379.5660 # total power usage of alu
falu_power             1002197507.4123 # total power usage of falu
resultbus_power        161234122.7354 # total power usage of resultbus
clock_power            1916809916.9275 # total power usage of clock
avg_rename_power             0.4180 # avg power usage of rename unit
avg_bpred_power              3.3378 # avg power usage of bpred unit
avg_window_power             2.2043 # avg power usage of instruction window
avg_lsq_power                0.9632 # avg power usage of lsq
avg_regfile_power            3.5725 # avg power usage of arch. regfile
avg_icache_power             3.0326 # avg power usage of icache
avg_dcache_power             6.4387 # avg power usage of dcache
avg_dcache2_power            3.1030 # avg power usage of dcache2
avg_alu_power               18.9412 # avg power usage of alu
avg_falu_power              14.2810 # avg power usage of falu
avg_resultbus_power          2.2975 # avg power usage of resultbus
avg_clock_power             27.3140 # avg power usage of clock
fetch_stage_power      447048146.0263 # total power usage of fetch stage
dispatch_stage_power   29331464.8994 # total power usage of dispatch stage
issue_stage_power      2382353051.1176 # total power usage of issue stage
avg_fetch_power              6.3703 # average power of fetch unit per cycle
avg_dispatch_power           0.4180 # average power of dispatch unit per cycle
avg_issue_power             33.9479 # average power of issue unit per cycle
total_power            5026247106.9879 # total power per cycle
avg_total_power_cycle       71.6227 # average total power per cycle
avg_total_power_cycle_nofp_nod2      54.2386 # average total power per cycle
avg_total_power_insn        46.9192 # average total power per insn
avg_total_power_insn_nofp_nod2      35.5311 # average total power per insn
rename_power_cc1       16999389.8722 # total power usage of rename unit_cc1
bpred_power_cc1        38399914.7437 # total power usage of bpred unit_cc1
window_power_cc1       103542819.4241 # total power usage of instruction window_cc1
lsq_power_cc1          11615276.4035 # total power usage of lsq_cc1
regfile_power_cc1      139291666.8745 # total power usage of arch. regfile_cc1
icache_power_cc1       125467274.5417 # total power usage of icache_cc1
dcache_power_cc1       135585428.0638 # total power usage of dcache_cc1
dcache2_power_cc1      14497889.4309 # total power usage of dcache2_cc1
alu_power_cc1          206964632.4330 # total power usage of alu_cc1
resultbus_power_cc1    101020219.7460 # total power usage of resultbus_cc1
clock_power_cc1        577922614.0324 # total power usage of clock_cc1
avg_rename_power_cc1         0.2422 # avg power usage of rename unit_cc1
avg_bpred_power_cc1          0.5472 # avg power usage of bpred unit_cc1
avg_window_power_cc1         1.4755 # avg power usage of instruction window_cc1
avg_lsq_power_cc1            0.1655 # avg power usage of lsq_cc1
avg_regfile_power_cc1        1.9849 # avg power usage of arch. regfile_cc1
avg_icache_power_cc1         1.7879 # avg power usage of icache_cc1
avg_dcache_power_cc1         1.9321 # avg power usage of dcache_cc1
avg_dcache2_power_cc1        0.2066 # avg power usage of dcache2_cc1
avg_alu_power_cc1            2.9492 # avg power usage of alu_cc1
avg_resultbus_power_cc1       1.4395 # avg power usage of resultbus_cc1
avg_clock_power_cc1          8.2352 # avg power usage of clock_cc1
fetch_stage_power_cc1  163867189.2854 # total power usage of fetch stage_cc1
dispatch_stage_power_cc1 16999389.8722 # total power usage of dispatch stage_cc1
issue_stage_power_cc1  573226265.5013 # total power usage of issue stage_cc1
avg_fetch_power_cc1          2.3351 # average power of fetch unit per cycle_cc1
avg_dispatch_power_cc1       0.2422 # average power of dispatch unit per cycle_cc1
avg_issue_power_cc1          8.1683 # average power of issue unit per cycle_cc1
total_power_cycle_cc1  1471307125.5658 # total power per cycle_cc1
avg_total_power_cycle_cc1      20.9657 # average total power per cycle_cc1
avg_total_power_insn_cc1      13.7344 # average total power per insn_cc1
rename_power_cc2       11193697.2276 # total power usage of rename unit_cc2
bpred_power_cc2        19498060.4191 # total power usage of bpred unit_cc2
window_power_cc2       84548070.9815 # total power usage of instruction window_cc2
lsq_power_cc2          8196509.3933 # total power usage of lsq_cc2
regfile_power_cc2      41114953.3785 # total power usage of arch. regfile_cc2
icache_power_cc2       125467274.5417 # total power usage of icache_cc2
dcache_power_cc2       99989893.5903 # total power usage of dcache_cc2
dcache2_power_cc2      8328676.6824 # total power usage of dcache2_cc2
alu_power_cc2          121394443.3841 # total power usage of alu_cc2
resultbus_power_cc2    63480037.8788 # total power usage of resultbus_cc2
clock_power_cc2        378619093.1531 # total power usage of clock_cc2
avg_rename_power_cc2         0.1595 # avg power usage of rename unit_cc2
avg_bpred_power_cc2          0.2778 # avg power usage of bpred unit_cc2
avg_window_power_cc2         1.2048 # avg power usage of instruction window_cc2
avg_lsq_power_cc2            0.1168 # avg power usage of instruction lsq_cc2
avg_regfile_power_cc2        0.5859 # avg power usage of arch. regfile_cc2
avg_icache_power_cc2         1.7879 # avg power usage of icache_cc2
avg_dcache_power_cc2         1.4248 # avg power usage of dcache_cc2
avg_dcache2_power_cc2        0.1187 # avg power usage of dcache2_cc2
avg_alu_power_cc2            1.7298 # avg power usage of alu_cc2
avg_resultbus_power_cc2       0.9046 # avg power usage of resultbus_cc2
avg_clock_power_cc2          5.3952 # avg power usage of clock_cc2
fetch_stage_power_cc2  144965334.9608 # total power usage of fetch stage_cc2
dispatch_stage_power_cc2 11193697.2276 # total power usage of dispatch stage_cc2
issue_stage_power_cc2  385937631.9104 # total power usage of issue stage_cc2
avg_fetch_power_cc2          2.0657 # average power of fetch unit per cycle_cc2
avg_dispatch_power_cc2       0.1595 # average power of dispatch unit per cycle_cc2
avg_issue_power_cc2          5.4995 # average power of issue unit per cycle_cc2
total_power_cycle_cc2  961830710.6305 # total power per cycle_cc2
avg_total_power_cycle_cc2      13.7058 # average total power per cycle_cc2
avg_total_power_insn_cc2       8.9785 # average total power per insn_cc2
rename_power_cc3       12426904.7236 # total power usage of rename unit_cc3
bpred_power_cc3        39081339.0745 # total power usage of bpred unit_cc3
window_power_cc3       89256322.0304 # total power usage of instruction window_cc3
lsq_power_cc3          13778743.5597 # total power usage of lsq_cc3
regfile_power_cc3      50846358.4727 # total power usage of arch. regfile_cc3
icache_power_cc3       134202092.9348 # total power usage of icache_cc3
dcache_power_cc3       131728267.4968 # total power usage of dcache_cc3
dcache2_power_cc3      28656048.4696 # total power usage of dcache2_cc3
alu_power_cc3          233621017.5994 # total power usage of alu_cc3
resultbus_power_cc3    68930319.2310 # total power usage of resultbus_cc3
clock_power_cc3        511022543.2854 # total power usage of clock_cc3
avg_rename_power_cc3         0.1771 # avg power usage of rename unit_cc3
avg_bpred_power_cc3          0.5569 # avg power usage of bpred unit_cc3
avg_window_power_cc3         1.2719 # avg power usage of instruction window_cc3
avg_lsq_power_cc3            0.1963 # avg power usage of instruction lsq_cc3
avg_regfile_power_cc3        0.7245 # avg power usage of arch. regfile_cc3
avg_icache_power_cc3         1.9123 # avg power usage of icache_cc3
avg_dcache_power_cc3         1.8771 # avg power usage of dcache_cc3
avg_dcache2_power_cc3        0.4083 # avg power usage of dcache2_cc3
avg_alu_power_cc3            3.3290 # avg power usage of alu_cc3
avg_resultbus_power_cc3       0.9822 # avg power usage of resultbus_cc3
avg_clock_power_cc3          7.2819 # avg power usage of clock_cc3
fetch_stage_power_cc3  173283432.0093 # total power usage of fetch stage_cc3
dispatch_stage_power_cc3 12426904.7236 # total power usage of dispatch stage_cc3
issue_stage_power_cc3  565970718.3869 # total power usage of issue stage_cc3
avg_fetch_power_cc3          2.4692 # average power of fetch unit per cycle_cc3
avg_dispatch_power_cc3       0.1771 # average power of dispatch unit per cycle_cc3
avg_issue_power_cc3          8.0649 # average power of issue unit per cycle_cc3
total_power_cycle_cc3  1313549956.8779 # total power per cycle_cc3
avg_total_power_cycle_cc3      18.7177 # average total power per cycle_cc3
avg_total_power_insn_cc3      12.2618 # average total power per insn_cc3
total_rename_access       107125565 # total number accesses of rename unit
total_bpred_access         11683346 # total number accesses of bpred unit
total_window_access       387731206 # total number accesses of instruction window
total_lsq_access           31151477 # total number accesses of load/store queue
total_regfile_access      153033404 # total number accesses of arch. regfile
total_icache_access       109591431 # total number accesses of icache
total_dcache_access        31059052 # total number accesses of dcache
total_dcache2_access        5368185 # total number accesses of dcache2
total_alu_access          104198322 # total number accesses of alu
total_resultbus_access    117886009 # total number accesses of resultbus
avg_rename_access            1.5265 # avg number accesses of rename unit
avg_bpred_access             0.1665 # avg number accesses of bpred unit
avg_window_access            5.5251 # avg number accesses of instruction window
avg_lsq_access               0.4439 # avg number accesses of lsq
avg_regfile_access           2.1807 # avg number accesses of arch. regfile
avg_icache_access            1.5616 # avg number accesses of icache
avg_dcache_access            0.4426 # avg number accesses of dcache
avg_dcache2_access           0.0765 # avg number accesses of dcache2
avg_alu_access               1.4848 # avg number accesses of alu
avg_resultbus_access         1.6798 # avg number accesses of resultbus
max_rename_access                 4 # max number accesses of rename unit
max_bpred_access                  3 # max number accesses of bpred unit
max_window_access                17 # max number accesses of instruction window
max_lsq_access                    5 # max number accesses of load/store queue
max_regfile_access               12 # max number accesses of arch. regfile
max_icache_access                 4 # max number accesses of icache
max_dcache_access                 4 # max number accesses of dcache
max_dcache2_access                4 # max number accesses of dcache2
max_alu_access                    4 # max number accesses of alu
max_resultbus_access              6 # max number accesses of resultbus
max_cycle_power_cc1         43.3022 # maximum cycle power usage of cc1
max_cycle_power_cc2         34.7768 # maximum cycle power usage of cc2
max_cycle_power_cc3         38.1286 # maximum cycle power usage of cc3
sim_invalid_addrs                 0 # total non-speculative bogus addresses seen (debug var)
ld_text_base           0x0120000000 # program text (code) segment base
ld_text_size                 212992 # program text (code) size in bytes
ld_data_base           0x0140000000 # program initialized data segment base
ld_data_size                 402416 # program init'ed `.data' and uninit'ed `.bss' size in bytes
ld_stack_base          0x011ff9b000 # program stack segment base (highest address in stack)
ld_stack_size                 16384 # program initial stack size
ld_prog_entry          0x01200095e0 # program entry point (initial PC)
ld_environ_base        0x011ff96ef0 # program environment base address address
ld_target_big_endian              0 # target executable endian-ness, non-zero if big endian
mem.page_count                23129 # total number of pages allocated
mem.page_mem                185032k # total size of memory pages allocated
mem.ptab_misses             7312777 # total first level page table misses
mem.ptab_accesses         861906502 # total page table accesses
mem.ptab_miss_rate           0.0085 # first level page table miss rate

