sim-outorder: SimpleScalar/Alpha Tool Set version 3.0 of August, 2003.
Copyright (c) 1994-2003 by Todd M. Austin, Ph.D. and SimpleScalar, LLC.
All Rights Reserved. This version of SimpleScalar is licensed for academic
non-commercial use.  No portion of this work may be used by any commercial
entity, or for any commercial purpose, without the prior written permission
of SimpleScalar, LLC (info@simplescalar.com).


Processor Parameters:
Issue Width: 4
Window Size: 16
Number of Virtual Registers: 32
Number of Physical Registers: 16
Datapath Width: 64
Total Power Consumption: 73.6227
Branch Predictor Power Consumption: 3.33775  (4.66%)
 branch target buffer power (W): 2.49493
 local predict power (W): 0.576035
 global predict power (W): 0.0996078
 chooser power (W): 0.0702439
 RAS power (W): 0.0969383
Rename Logic Power Consumption: 0.417965  (0.584%)
 Instruction Decode Power (W): 0.0159915
 RAT decode_power (W): 0.113514
 RAT wordline_power (W): 0.0307815
 RAT bitline_power (W): 0.246771
 DCL Comparators (W): 0.0109075
Instruction Window Power Consumption: 2.20432  (3.08%)
 tagdrive (W): 0.0943488
 tagmatch (W): 0.033695
 Selection Logic (W): 0.0134217
 decode_power (W): 0.0532503
 wordline_power (W): 0.0844643
 bitline_power (W): 1.92514
Load/Store Queue Power Consumption: 0.96318  (1.34%)
 tagdrive (W): 0.457232
 tagmatch (W): 0.100774
 decode_power (W): 0.00799577
 wordline_power (W): 0.0150119
 bitline_power (W): 0.382166
Arch. Register File Power Consumption: 3.57247  (4.99%)
 decode_power (W): 0.113514
 wordline_power (W): 0.0844643
 bitline_power (W): 3.37449
Result Bus Power Consumption: 2.29754  (3.21%)
Total Clock Power: 27.314  (38.1%)
Int ALU Power: 4.66013  (6.51%)
FP ALU Power: 14.281  (19.9%)
Instruction Cache Power Consumption: 2.76773  (3.86%)
 decode_power (W): 0.151353
 wordline_power (W): 0.180479
 bitline_power (W): 1.42251
 senseamp_power (W): 0.768
 tagarray_power (W): 0.245382
Itlb_power (W): 0.264834 (0.37%)
Data Cache Power Consumption: 5.53546  (7.73%)
 decode_power (W): 0.302705
 wordline_power (W): 0.360958
 bitline_power (W): 2.84503
 senseamp_power (W): 1.536
 tagarray_power (W): 0.490764
Dtlb_power (W): 0.903238 (1.26%)
Level 2 Cache Power Consumption: 3.10298 (4.33%)
 decode_power (W): 0.19487
 wordline_power (W): 0.0430878
 bitline_power (W): 1.77274
 senseamp_power (W): 0.192
 tagarray_power (W): 0.900275
sim: loading EIO file: ../benchmarks/176.gcc.00-expr-ref.eio.gz
sim: command line: ./sim-outorder -config ../configs/current.config ../benchmarks/176.gcc.00-expr-ref.eio.gz 

sim: simulation started @ Mon Nov 23 20:06:24 2015, options follow:

sim-outorder: This simulator implements a very detailed out-of-order issue
superscalar processor with a two-level memory system and speculative
execution support.  This simulator is a performance simulator, tracking the
latency of all pipeline operations.

# -config                     # load configuration from a file
# -dumpconfig                 # dump configuration to a file
# -h                    false # print help message    
# -v                    false # verbose operation     
# -d                    false # enable debug message  
# -i                    false # start in Dlite debugger
-seed                       1 # random number generator seed (0 for timer seed)
# -q                    false # initialize and terminate immediately
# -chkpt               <null> # restore EIO trace execution from <fname>
# -redir:sim     ../results/08_04_2lbp/176.gcc.00-expr-ref.eio.gz.out # redirect simulator output to file (non-interactive only)
# -redir:prog       /dev/null # redirect simulated program output to file
-nice                       0 # simulator scheduling priority
-freq            600000000.0000 # frequency             
-max:inst           100000000 # maximum number of inst's to execute
-fastfwd                    0 # number of insts skipped before timing starts
# -ptrace              <null> # generate pipetrace, i.e., <fname|stdout|stderr> <range>
-fetch:ifqsize              4 # instruction fetch queue size (in insts)
-fetch:mplat                3 # extra branch mis-prediction latency
-fetch:speed                1 # speed of front-end of machine relative to execution core
-bpred                   2lev # branch predictor type {nottaken|taken|perfect|bimod|2lev|comb}
-bpred:bimod     2048 # bimodal predictor config (<table size>)
-bpred:2lev      1 16384 8 0 # 2-level predictor config (<l1size> <l2size> <hist_size> <xor>)
-bpred:comb      1024 # combining predictor config (<meta_table_size>)
-bpred:ras                  8 # return address stack size (0 for no return stack)
-bpred:btb       512 4 # BTB config (<num_sets> <associativity>)
# -bpred:spec_update       <null> # speculative predictors update in {ID|WB} (default non-spec)
-decode:width               4 # instruction decode B/W (insts/cycle)
-issue:width                4 # instruction issue B/W (insts/cycle)
-issue:inorder          false # run pipeline with in-order issue
-issue:wrongpath         true # issue instructions down wrong execution paths
-commit:width               4 # instruction commit B/W (insts/cycle)
-ruu:size                  16 # register update unit (RUU) size
-lsq:size                   8 # load/store queue (LSQ) size
-cache:dl1       dl1:32:64:8:f # l1 data cache config, i.e., {<config>|none}
-cache:dl1lat               1 # l1 data cache hit latency (in cycles)
-cache:dl2       dl2:256:64:8:f # l2 data cache config, i.e., {<config>|none}
-cache:dl2lat               2 # l2 data cache hit latency (in cycles)
-cache:il1       il1:32:64:8:f # l1 inst cache config, i.e., {<config>|dl1|dl2|none}
-cache:il1lat               1 # l1 instruction cache hit latency (in cycles)
-cache:il2                dl2 # l2 instruction cache config, i.e., {<config>|dl2|none}
-cache:il2lat               2 # l2 instruction cache hit latency (in cycles)
-cache:flush            false # flush caches on system calls
-cache:icompress        false # convert 64-bit inst addresses to 32-bit inst equivalents
-mem:lat         103 1 # memory access latency (<first_chunk> <inter_chunk>)
-mem:width                  8 # memory access bus width (in bytes)
-tlb:itlb        itlb:16:4096:4:l # instruction TLB config, i.e., {<config>|none}
-tlb:dtlb        dtlb:32:4096:4:l # data TLB config, i.e., {<config>|none}
-tlb:lat                   30 # inst/data TLB miss latency (in cycles)
-res:ialu                   4 # total number of integer ALU's available
-res:imult                  1 # total number of integer multiplier/dividers available
-res:memport                2 # total number of memory system ports available (to CPU)
-res:fpalu                  4 # total number of floating point ALU's available
-res:fpmult                 1 # total number of floating point multiplier/dividers available
# -pcstat              <null> # profile stat(s) against text addr's (mult uses ok)
-bugcompat              false # operate in backward-compatible bugs mode (for testing only)

  Pipetrace range arguments are formatted as follows:

    {{@|#}<start>}:{{@|#|+}<end>}

  Both ends of the range are optional, if neither are specified, the entire
  execution is traced.  Ranges that start with a `@' designate an address
  range to be traced, those that start with an `#' designate a cycle count
  range.  All other range values represent an instruction count range.  The
  second argument, if specified with a `+', indicates a value relative
  to the first argument, e.g., 1000:+100 == 1000:1100.  Program symbols may
  be used in all contexts.

    Examples:   -ptrace FOO.trc #0:#1000
                -ptrace BAR.trc @2000:
                -ptrace BLAH.trc :1500
                -ptrace UXXE.trc :
                -ptrace FOOBAR.trc @main:+278

  Branch predictor configuration examples for 2-level predictor:
    Configurations:   N, M, W, X
      N   # entries in first level (# of shift register(s))
      W   width of shift register(s)
      M   # entries in 2nd level (# of counters, or other FSM)
      X   (yes-1/no-0) xor history and address for 2nd level index
    Sample predictors:
      GAg     : 1, W, 2^W, 0
      GAp     : 1, W, M (M > 2^W), 0
      PAg     : N, W, 2^W, 0
      PAp     : N, W, M (M == 2^(N+W)), 0
      gshare  : 1, W, 2^W, 1
  Predictor `comb' combines a bimodal and a 2-level predictor.

  The cache config parameter <config> has the following format:

    <name>:<nsets>:<bsize>:<assoc>:<repl>

    <name>   - name of the cache being defined
    <nsets>  - number of sets in the cache
    <bsize>  - block size of the cache
    <assoc>  - associativity of the cache
    <repl>   - block replacement strategy, 'l'-LRU, 'f'-FIFO, 'r'-random

    Examples:   -cache:dl1 dl1:4096:32:1:l
                -dtlb dtlb:128:4096:32:r

  Cache levels can be unified by pointing a level of the instruction cache
  hierarchy at the data cache hiearchy using the "dl1" and "dl2" cache
  configuration arguments.  Most sensible combinations are supported, e.g.,

    A unified l2 cache (il2 is pointed at dl2):
      -cache:il1 il1:128:64:1:l -cache:il2 dl2
      -cache:dl1 dl1:256:32:1:l -cache:dl2 ul2:1024:64:2:l

    Or, a fully unified cache hierarchy (il1 pointed at dl1):
      -cache:il1 dl1
      -cache:dl1 ul1:256:32:1:l -cache:dl2 ul2:1024:64:2:l



sim: ** starting performance simulation **

sim: ** simulation statistics **
sim_num_insn              100000002 # total number of instructions committed
sim_num_refs               62486119 # total number of loads and stores committed
sim_num_loads              45137447 # total number of loads committed
sim_num_stores         17348672.0000 # total number of stores committed
sim_num_branches           10121353 # total number of branches committed
sim_elapsed_time                112 # total simulation time in seconds
sim_inst_rate           892857.1607 # simulation speed (in insts/sec)
sim_total_insn            101839831 # total number of instructions executed
sim_total_refs             63268630 # total number of loads and stores executed
sim_total_loads            45866020 # total number of loads executed
sim_total_stores       17402610.0000 # total number of stores executed
sim_total_branches         10457828 # total number of branches executed
sim_cycle                  76736151 # total simulation time in cycles
sim_IPC                      1.3032 # instructions per cycle
sim_CPI                      0.7674 # cycles per instruction
sim_exec_BW                  1.3271 # total instructions (mis-spec + committed) per cycle
sim_IPB                      9.8801 # instruction per branch
IFQ_count                 267771250 # cumulative IFQ occupancy
IFQ_fcount                 63553107 # cumulative IFQ full count
ifq_occupancy                3.4895 # avg IFQ occupancy (insn's)
ifq_rate                     1.3271 # avg IFQ dispatch rate (insn/cycle)
ifq_latency                  2.6293 # avg IFQ occupant latency (cycle's)
ifq_full                     0.8282 # fraction of time (cycle's) IFQ was full
RUU_count                 870804277 # cumulative RUU occupancy
RUU_fcount                 22969700 # cumulative RUU full count
ruu_occupancy               11.3480 # avg RUU occupancy (insn's)
ruu_rate                     1.3271 # avg RUU dispatch rate (insn/cycle)
ruu_latency                  8.5507 # avg RUU occupant latency (cycle's)
ruu_full                     0.2993 # fraction of time (cycle's) RUU was full
LSQ_count                 474006744 # cumulative LSQ occupancy
LSQ_fcount                 39773328 # cumulative LSQ full count
lsq_occupancy                6.1771 # avg LSQ occupancy (insn's)
lsq_rate                     1.3271 # avg LSQ dispatch rate (insn/cycle)
lsq_latency                  4.6544 # avg LSQ occupant latency (cycle's)
lsq_full                     0.5183 # fraction of time (cycle's) LSQ was full
sim_slip                 1475327127 # total number of slip cycles
avg_sim_slip                14.7533 # the average slip between issue and retirement
bpred_2lev.lookups         10571921 # total number of bpred lookups
bpred_2lev.updates         10121353 # total number of updates
bpred_2lev.addr_hits        9913322 # total number of address-predicted hits
bpred_2lev.dir_hits         9956650 # total number of direction-predicted hits (includes addr-hits)
bpred_2lev.misses            164703 # total number of misses
bpred_2lev.jr_hits           129070 # total number of address-predicted hits for JR's
bpred_2lev.jr_seen           159316 # total number of JR's seen
bpred_2lev.jr_non_ras_hits.PP        24448 # total number of address-predicted hits for non-RAS JR's
bpred_2lev.jr_non_ras_seen.PP        51936 # total number of non-RAS JR's seen
bpred_2lev.bpred_addr_rate    0.9794 # branch address-prediction rate (i.e., addr-hits/updates)
bpred_2lev.bpred_dir_rate    0.9837 # branch direction-prediction rate (i.e., all-hits/updates)
bpred_2lev.bpred_jr_rate    0.8102 # JR address-prediction rate (i.e., JR addr-hits/JRs seen)
bpred_2lev.bpred_jr_non_ras_rate.PP    0.4707 # non-RAS JR addr-pred rate (ie, non-RAS JR hits/JRs seen)
bpred_2lev.retstack_pushes       131762 # total number of address pushed onto ret-addr stack
bpred_2lev.retstack_pops       122398 # total number of address popped off of ret-addr stack
bpred_2lev.used_ras.PP       107380 # total number of RAS predictions used
bpred_2lev.ras_hits.PP       104622 # total number of RAS hits
bpred_2lev.ras_rate.PP    0.9743 # RAS prediction rate (i.e., RAS hits/used RAS)
il1.accesses              102528809 # total number of accesses
il1.hits                  102441591 # total number of hits
il1.misses                    87218 # total number of misses
il1.replacements              86962 # total number of replacements
il1.writebacks                    0 # total number of writebacks
il1.invalidations                 0 # total number of invalidations
il1.miss_rate                0.0009 # miss rate (i.e., misses/ref)
il1.repl_rate                0.0008 # replacement rate (i.e., repls/ref)
il1.wb_rate                  0.0000 # writeback rate (i.e., wrbks/ref)
il1.inv_rate                 0.0000 # invalidation rate (i.e., invs/ref)
dl1.accesses               62773833 # total number of accesses
dl1.hits                   60412607 # total number of hits
dl1.misses                  2361226 # total number of misses
dl1.replacements            2360970 # total number of replacements
dl1.writebacks              2077030 # total number of writebacks
dl1.invalidations                 0 # total number of invalidations
dl1.miss_rate                0.0376 # miss rate (i.e., misses/ref)
dl1.repl_rate                0.0376 # replacement rate (i.e., repls/ref)
dl1.wb_rate                  0.0331 # writeback rate (i.e., wrbks/ref)
dl1.inv_rate                 0.0000 # invalidation rate (i.e., invs/ref)
dl2.accesses                4525474 # total number of accesses
dl2.hits                    2698453 # total number of hits
dl2.misses                  1827021 # total number of misses
dl2.replacements            1824973 # total number of replacements
dl2.writebacks              1497695 # total number of writebacks
dl2.invalidations                 0 # total number of invalidations
dl2.miss_rate                0.4037 # miss rate (i.e., misses/ref)
dl2.repl_rate                0.4033 # replacement rate (i.e., repls/ref)
dl2.wb_rate                  0.3309 # writeback rate (i.e., wrbks/ref)
dl2.inv_rate                 0.0000 # invalidation rate (i.e., invs/ref)
itlb.accesses             102528809 # total number of accesses
itlb.hits                 102526428 # total number of hits
itlb.misses                    2381 # total number of misses
itlb.replacements              2318 # total number of replacements
itlb.writebacks                   0 # total number of writebacks
itlb.invalidations                0 # total number of invalidations
itlb.miss_rate               0.0000 # miss rate (i.e., misses/ref)
itlb.repl_rate               0.0000 # replacement rate (i.e., repls/ref)
itlb.wb_rate                 0.0000 # writeback rate (i.e., wrbks/ref)
itlb.inv_rate                0.0000 # invalidation rate (i.e., invs/ref)
dtlb.accesses              62792532 # total number of accesses
dtlb.hits                  62761020 # total number of hits
dtlb.misses                   31512 # total number of misses
dtlb.replacements             31384 # total number of replacements
dtlb.writebacks                   0 # total number of writebacks
dtlb.invalidations                0 # total number of invalidations
dtlb.miss_rate               0.0005 # miss rate (i.e., misses/ref)
dtlb.repl_rate               0.0005 # replacement rate (i.e., repls/ref)
dtlb.wb_rate                 0.0000 # writeback rate (i.e., wrbks/ref)
dtlb.inv_rate                0.0000 # invalidation rate (i.e., invs/ref)
rename_power           32073062.6970 # total power usage of rename unit
bpred_power            256126302.6013 # total power usage of bpred unit
window_power           169150987.6830 # total power usage of instruction window
lsq_power              73910725.0790 # total power usage of load/store queue
regfile_power          274137758.6105 # total power usage of arch. regfile
icache_power           232707216.7663 # total power usage of icache
dcache_power           494080732.1867 # total power usage of dcache
dcache2_power          238110493.9494 # total power usage of dcache2
alu_power              1453472898.5895 # total power usage of alu
falu_power             1095872422.3505 # total power usage of falu
resultbus_power        176304598.0621 # total power usage of resultbus
clock_power            2095973210.5092 # total power usage of clock
avg_rename_power             0.4180 # avg power usage of rename unit
avg_bpred_power              3.3378 # avg power usage of bpred unit
avg_window_power             2.2043 # avg power usage of instruction window
avg_lsq_power                0.9632 # avg power usage of lsq
avg_regfile_power            3.5725 # avg power usage of arch. regfile
avg_icache_power             3.0326 # avg power usage of icache
avg_dcache_power             6.4387 # avg power usage of dcache
avg_dcache2_power            3.1030 # avg power usage of dcache2
avg_alu_power               18.9412 # avg power usage of alu
avg_falu_power              14.2810 # avg power usage of falu
avg_resultbus_power          2.2975 # avg power usage of resultbus
avg_clock_power             27.3140 # avg power usage of clock
fetch_stage_power      488833519.3676 # total power usage of fetch stage
dispatch_stage_power   32073062.6970 # total power usage of dispatch stage
issue_stage_power      2605030435.5497 # total power usage of issue stage
avg_fetch_power              6.3703 # average power of fetch unit per cycle
avg_dispatch_power           0.4180 # average power of dispatch unit per cycle
avg_issue_power             33.9479 # average power of issue unit per cycle
total_power            5496047986.7341 # total power per cycle
avg_total_power_cycle       71.6227 # average total power per cycle
avg_total_power_cycle_nofp_nod2      54.2386 # average total power per cycle
avg_total_power_insn        53.9676 # average total power per insn
avg_total_power_insn_nofp_nod2      40.8687 # average total power per insn
rename_power_cc1       15716318.1674 # total power usage of rename unit_cc1
bpred_power_cc1        33000727.4241 # total power usage of bpred unit_cc1
window_power_cc1       104379117.3237 # total power usage of instruction window_cc1
lsq_power_cc1          22209037.0747 # total power usage of lsq_cc1
regfile_power_cc1      117766852.8049 # total power usage of arch. regfile_cc1
icache_power_cc1       114915477.4378 # total power usage of icache_cc1
dcache_power_cc1       236851335.9725 # total power usage of dcache_cc1
dcache2_power_cc1      7572502.9630 # total power usage of dcache2_cc1
alu_power_cc1          189489678.8929 # total power usage of alu_cc1
resultbus_power_cc1    94955458.7824 # total power usage of resultbus_cc1
clock_power_cc1        600650933.9003 # total power usage of clock_cc1
avg_rename_power_cc1         0.2048 # avg power usage of rename unit_cc1
avg_bpred_power_cc1          0.4301 # avg power usage of bpred unit_cc1
avg_window_power_cc1         1.3602 # avg power usage of instruction window_cc1
avg_lsq_power_cc1            0.2894 # avg power usage of lsq_cc1
avg_regfile_power_cc1        1.5347 # avg power usage of arch. regfile_cc1
avg_icache_power_cc1         1.4975 # avg power usage of icache_cc1
avg_dcache_power_cc1         3.0866 # avg power usage of dcache_cc1
avg_dcache2_power_cc1        0.0987 # avg power usage of dcache2_cc1
avg_alu_power_cc1            2.4694 # avg power usage of alu_cc1
avg_resultbus_power_cc1       1.2374 # avg power usage of resultbus_cc1
avg_clock_power_cc1          7.8275 # avg power usage of clock_cc1
fetch_stage_power_cc1  147916204.8619 # total power usage of fetch stage_cc1
dispatch_stage_power_cc1 15716318.1674 # total power usage of dispatch stage_cc1
issue_stage_power_cc1  655457131.0092 # total power usage of issue stage_cc1
avg_fetch_power_cc1          1.9276 # average power of fetch unit per cycle_cc1
avg_dispatch_power_cc1       0.2048 # average power of dispatch unit per cycle_cc1
avg_issue_power_cc1          8.5417 # average power of issue unit per cycle_cc1
total_power_cycle_cc1  1537507440.7437 # total power per cycle_cc1
avg_total_power_cycle_cc1      20.0363 # average total power per cycle_cc1
avg_total_power_insn_cc1      15.0973 # average total power per insn_cc1
rename_power_cc2       10641383.6316 # total power usage of rename unit_cc2
bpred_power_cc2        16891287.1613 # total power usage of bpred unit_cc2
window_power_cc2       97520851.6782 # total power usage of instruction window_cc2
lsq_power_cc2          16158300.1012 # total power usage of lsq_cc2
regfile_power_cc2      43370477.9152 # total power usage of arch. regfile_cc2
icache_power_cc2       114915477.4378 # total power usage of icache_cc2
dcache_power_cc2       202090806.9701 # total power usage of dcache_cc2
dcache2_power_cc2      7021220.3523 # total power usage of dcache2_cc2
alu_power_cc2          115201972.5339 # total power usage of alu_cc2
resultbus_power_cc2    73250022.3818 # total power usage of resultbus_cc2
clock_power_cc2        444558974.3860 # total power usage of clock_cc2
avg_rename_power_cc2         0.1387 # avg power usage of rename unit_cc2
avg_bpred_power_cc2          0.2201 # avg power usage of bpred unit_cc2
avg_window_power_cc2         1.2709 # avg power usage of instruction window_cc2
avg_lsq_power_cc2            0.2106 # avg power usage of instruction lsq_cc2
avg_regfile_power_cc2        0.5652 # avg power usage of arch. regfile_cc2
avg_icache_power_cc2         1.4975 # avg power usage of icache_cc2
avg_dcache_power_cc2         2.6336 # avg power usage of dcache_cc2
avg_dcache2_power_cc2        0.0915 # avg power usage of dcache2_cc2
avg_alu_power_cc2            1.5013 # avg power usage of alu_cc2
avg_resultbus_power_cc2       0.9546 # avg power usage of resultbus_cc2
avg_clock_power_cc2          5.7933 # avg power usage of clock_cc2
fetch_stage_power_cc2  131806764.5991 # total power usage of fetch stage_cc2
dispatch_stage_power_cc2 10641383.6316 # total power usage of dispatch stage_cc2
issue_stage_power_cc2  511243174.0174 # total power usage of issue stage_cc2
avg_fetch_power_cc2          1.7177 # average power of fetch unit per cycle_cc2
avg_dispatch_power_cc2       0.1387 # average power of dispatch unit per cycle_cc2
avg_issue_power_cc2          6.6624 # average power of issue unit per cycle_cc2
total_power_cycle_cc2  1141620774.5493 # total power per cycle_cc2
avg_total_power_cycle_cc2      14.8772 # average total power per cycle_cc2
avg_total_power_insn_cc2      11.2100 # average total power per insn_cc2
rename_power_cc3       12277058.0759 # total power usage of rename unit_cc3
bpred_power_cc3        39204174.0588 # total power usage of bpred unit_cc3
window_power_cc3       104506658.6546 # total power usage of instruction window_cc3
lsq_power_cc3          21324769.1891 # total power usage of lsq_cc3
regfile_power_cc3      57149122.0120 # total power usage of arch. regfile_cc3
icache_power_cc3       126694651.3008 # total power usage of icache_cc3
dcache_power_cc3       232323790.6224 # total power usage of dcache_cc3
dcache2_power_cc3      30077215.8579 # total power usage of dcache2_cc3
alu_power_cc3          241600293.9546 # total power usage of alu_cc3
resultbus_power_cc3    80752913.1400 # total power usage of resultbus_cc3
clock_power_cc3        595567395.8082 # total power usage of clock_cc3
avg_rename_power_cc3         0.1600 # avg power usage of rename unit_cc3
avg_bpred_power_cc3          0.5109 # avg power usage of bpred unit_cc3
avg_window_power_cc3         1.3619 # avg power usage of instruction window_cc3
avg_lsq_power_cc3            0.2779 # avg power usage of instruction lsq_cc3
avg_regfile_power_cc3        0.7447 # avg power usage of arch. regfile_cc3
avg_icache_power_cc3         1.6510 # avg power usage of icache_cc3
avg_dcache_power_cc3         3.0276 # avg power usage of dcache_cc3
avg_dcache2_power_cc3        0.3920 # avg power usage of dcache2_cc3
avg_alu_power_cc3            3.1485 # avg power usage of alu_cc3
avg_resultbus_power_cc3       1.0523 # avg power usage of resultbus_cc3
avg_clock_power_cc3          7.7612 # avg power usage of clock_cc3
fetch_stage_power_cc3  165898825.3596 # total power usage of fetch stage_cc3
dispatch_stage_power_cc3 12277058.0759 # total power usage of dispatch stage_cc3
issue_stage_power_cc3  710585641.4185 # total power usage of issue stage_cc3
avg_fetch_power_cc3          2.1619 # average power of fetch unit per cycle_cc3
avg_dispatch_power_cc3       0.1600 # average power of dispatch unit per cycle_cc3
avg_issue_power_cc3          9.2601 # average power of issue unit per cycle_cc3
total_power_cycle_cc3  1541478042.6742 # total power per cycle_cc3
avg_total_power_cycle_cc3      20.0880 # average total power per cycle_cc3
avg_total_power_insn_cc3      15.1363 # average total power per insn_cc3
total_rename_access       101839831 # total number accesses of rename unit
total_bpred_access         10121353 # total number accesses of bpred unit
total_window_access       461554470 # total number accesses of instruction window
total_lsq_access           62832228 # total number accesses of load/store queue
total_regfile_access      169562346 # total number accesses of arch. regfile
total_icache_access       102562450 # total number accesses of icache
total_dcache_access        62773833 # total number accesses of dcache
total_dcache2_access        4525474 # total number accesses of dcache2
total_alu_access           98882368 # total number accesses of alu
total_resultbus_access    136029421 # total number accesses of resultbus
avg_rename_access            1.3271 # avg number accesses of rename unit
avg_bpred_access             0.1319 # avg number accesses of bpred unit
avg_window_access            6.0148 # avg number accesses of instruction window
avg_lsq_access               0.8188 # avg number accesses of lsq
avg_regfile_access           2.2097 # avg number accesses of arch. regfile
avg_icache_access            1.3366 # avg number accesses of icache
avg_dcache_access            0.8180 # avg number accesses of dcache
avg_dcache2_access           0.0590 # avg number accesses of dcache2
avg_alu_access               1.2886 # avg number accesses of alu
avg_resultbus_access         1.7727 # avg number accesses of resultbus
max_rename_access                 4 # max number accesses of rename unit
max_bpred_access                  4 # max number accesses of bpred unit
max_window_access                17 # max number accesses of instruction window
max_lsq_access                    5 # max number accesses of load/store queue
max_regfile_access               12 # max number accesses of arch. regfile
max_icache_access                 4 # max number accesses of icache
max_dcache_access                 4 # max number accesses of dcache
max_dcache2_access                7 # max number accesses of dcache2
max_alu_access                    4 # max number accesses of alu
max_resultbus_access              8 # max number accesses of resultbus
max_cycle_power_cc1         49.2255 # maximum cycle power usage of cc1
max_cycle_power_cc2         34.1875 # maximum cycle power usage of cc2
max_cycle_power_cc3         37.6250 # maximum cycle power usage of cc3
sim_invalid_addrs                 0 # total non-speculative bogus addresses seen (debug var)
ld_text_base           0x0120000000 # program text (code) segment base
ld_text_size                1990656 # program text (code) size in bytes
ld_data_base           0x0140000000 # program initialized data segment base
ld_data_size                 306320 # program init'ed `.data' and uninit'ed `.bss' size in bytes
ld_stack_base          0x011ff9b000 # program stack segment base (highest address in stack)
ld_stack_size                 16384 # program initial stack size
ld_prog_entry          0x01201cdbd8 # program entry point (initial PC)
ld_environ_base        0x011fe9e770 # program environment base address address
ld_target_big_endian              0 # target executable endian-ness, non-zero if big endian
mem.page_count                 2015 # total number of pages allocated
mem.page_mem                 16120k # total size of memory pages allocated
mem.ptab_misses               14032 # total first level page table misses
mem.ptab_accesses        1165021733 # total page table accesses
mem.ptab_miss_rate           0.0000 # first level page table miss rate

