sim-outorder: SimpleScalar/Alpha Tool Set version 3.0 of August, 2003.
Copyright (c) 1994-2003 by Todd M. Austin, Ph.D. and SimpleScalar, LLC.
All Rights Reserved. This version of SimpleScalar is licensed for academic
non-commercial use.  No portion of this work may be used by any commercial
entity, or for any commercial purpose, without the prior written permission
of SimpleScalar, LLC (info@simplescalar.com).


Processor Parameters:
Issue Width: 4
Window Size: 16
Number of Virtual Registers: 32
Number of Physical Registers: 16
Datapath Width: 64
Total Power Consumption: 72.3917
Branch Predictor Power Consumption: 2.79653  (3.97%)
 branch target buffer power (W): 2.49493
 local predict power (W): 0.0348099
 global predict power (W): 0.0996078
 chooser power (W): 0.0702439
 RAS power (W): 0.0969383
Rename Logic Power Consumption: 0.417965  (0.594%)
 Instruction Decode Power (W): 0.0159915
 RAT decode_power (W): 0.113514
 RAT wordline_power (W): 0.0307815
 RAT bitline_power (W): 0.246771
 DCL Comparators (W): 0.0109075
Instruction Window Power Consumption: 2.20432  (3.13%)
 tagdrive (W): 0.0943488
 tagmatch (W): 0.033695
 Selection Logic (W): 0.0134217
 decode_power (W): 0.0532503
 wordline_power (W): 0.0844643
 bitline_power (W): 1.92514
Load/Store Queue Power Consumption: 0.96318  (1.37%)
 tagdrive (W): 0.457232
 tagmatch (W): 0.100774
 decode_power (W): 0.00799577
 wordline_power (W): 0.0150119
 bitline_power (W): 0.382166
Arch. Register File Power Consumption: 3.57247  (5.08%)
 decode_power (W): 0.113514
 wordline_power (W): 0.0844643
 bitline_power (W): 3.37449
Result Bus Power Consumption: 2.29754  (3.26%)
Total Clock Power: 26.6243  (37.8%)
Int ALU Power: 4.66013  (6.62%)
FP ALU Power: 14.281  (20.3%)
Instruction Cache Power Consumption: 2.76773  (3.93%)
 decode_power (W): 0.151353
 wordline_power (W): 0.180479
 bitline_power (W): 1.42251
 senseamp_power (W): 0.768
 tagarray_power (W): 0.245382
Itlb_power (W): 0.264834 (0.376%)
Data Cache Power Consumption: 5.53546  (7.86%)
 decode_power (W): 0.302705
 wordline_power (W): 0.360958
 bitline_power (W): 2.84503
 senseamp_power (W): 1.536
 tagarray_power (W): 0.490764
Dtlb_power (W): 0.903238 (1.28%)
Level 2 Cache Power Consumption: 3.10298 (4.41%)
 decode_power (W): 0.19487
 wordline_power (W): 0.0430878
 bitline_power (W): 1.77274
 senseamp_power (W): 0.192
 tagarray_power (W): 0.900275
sim: loading EIO file: ../benchmarks/164.gzip.source-ref.eio.gz
sim: command line: ./sim-outorder -config ../configs/current.config ../benchmarks/164.gzip.source-ref.eio.gz 

sim: simulation started @ Mon Nov 23 19:16:09 2015, options follow:

sim-outorder: This simulator implements a very detailed out-of-order issue
superscalar processor with a two-level memory system and speculative
execution support.  This simulator is a performance simulator, tracking the
latency of all pipeline operations.

# -config                     # load configuration from a file
# -dumpconfig                 # dump configuration to a file
# -h                    false # print help message    
# -v                    false # verbose operation     
# -d                    false # enable debug message  
# -i                    false # start in Dlite debugger
-seed                       1 # random number generator seed (0 for timer seed)
# -q                    false # initialize and terminate immediately
# -chkpt               <null> # restore EIO trace execution from <fname>
# -redir:sim     ../results/10_00_baseline/164.gzip.source-ref.eio.gz.out # redirect simulator output to file (non-interactive only)
# -redir:prog       /dev/null # redirect simulated program output to file
-nice                       0 # simulator scheduling priority
-freq            600000000.0000 # frequency             
-max:inst            10000000 # maximum number of inst's to execute
-fastfwd                    0 # number of insts skipped before timing starts
# -ptrace              <null> # generate pipetrace, i.e., <fname|stdout|stderr> <range>
-fetch:ifqsize              4 # instruction fetch queue size (in insts)
-fetch:mplat                3 # extra branch mis-prediction latency
-fetch:speed                1 # speed of front-end of machine relative to execution core
-bpred                perfect # branch predictor type {nottaken|taken|perfect|bimod|2lev|comb}
-bpred:bimod     2048 # bimodal predictor config (<table size>)
-bpred:2lev      1 256 2 0 # 2-level predictor config (<l1size> <l2size> <hist_size> <xor>)
-bpred:comb      1024 # combining predictor config (<meta_table_size>)
-bpred:ras                  8 # return address stack size (0 for no return stack)
-bpred:btb       512 4 # BTB config (<num_sets> <associativity>)
# -bpred:spec_update       <null> # speculative predictors update in {ID|WB} (default non-spec)
-decode:width               4 # instruction decode B/W (insts/cycle)
-issue:width                4 # instruction issue B/W (insts/cycle)
-issue:inorder          false # run pipeline with in-order issue
-issue:wrongpath         true # issue instructions down wrong execution paths
-commit:width               4 # instruction commit B/W (insts/cycle)
-ruu:size                  16 # register update unit (RUU) size
-lsq:size                   8 # load/store queue (LSQ) size
-cache:dl1       dl1:32:64:8:f # l1 data cache config, i.e., {<config>|none}
-cache:dl1lat               1 # l1 data cache hit latency (in cycles)
-cache:dl2       dl2:256:64:8:f # l2 data cache config, i.e., {<config>|none}
-cache:dl2lat               2 # l2 data cache hit latency (in cycles)
-cache:il1       il1:32:64:8:f # l1 inst cache config, i.e., {<config>|dl1|dl2|none}
-cache:il1lat               1 # l1 instruction cache hit latency (in cycles)
-cache:il2                dl2 # l2 instruction cache config, i.e., {<config>|dl2|none}
-cache:il2lat               2 # l2 instruction cache hit latency (in cycles)
-cache:flush            false # flush caches on system calls
-cache:icompress        false # convert 64-bit inst addresses to 32-bit inst equivalents
-mem:lat         103 1 # memory access latency (<first_chunk> <inter_chunk>)
-mem:width                  8 # memory access bus width (in bytes)
-tlb:itlb        itlb:16:4096:4:l # instruction TLB config, i.e., {<config>|none}
-tlb:dtlb        dtlb:32:4096:4:l # data TLB config, i.e., {<config>|none}
-tlb:lat                   30 # inst/data TLB miss latency (in cycles)
-res:ialu                   4 # total number of integer ALU's available
-res:imult                  1 # total number of integer multiplier/dividers available
-res:memport                2 # total number of memory system ports available (to CPU)
-res:fpalu                  4 # total number of floating point ALU's available
-res:fpmult                 1 # total number of floating point multiplier/dividers available
# -pcstat              <null> # profile stat(s) against text addr's (mult uses ok)
-bugcompat              false # operate in backward-compatible bugs mode (for testing only)

  Pipetrace range arguments are formatted as follows:

    {{@|#}<start>}:{{@|#|+}<end>}

  Both ends of the range are optional, if neither are specified, the entire
  execution is traced.  Ranges that start with a `@' designate an address
  range to be traced, those that start with an `#' designate a cycle count
  range.  All other range values represent an instruction count range.  The
  second argument, if specified with a `+', indicates a value relative
  to the first argument, e.g., 1000:+100 == 1000:1100.  Program symbols may
  be used in all contexts.

    Examples:   -ptrace FOO.trc #0:#1000
                -ptrace BAR.trc @2000:
                -ptrace BLAH.trc :1500
                -ptrace UXXE.trc :
                -ptrace FOOBAR.trc @main:+278

  Branch predictor configuration examples for 2-level predictor:
    Configurations:   N, M, W, X
      N   # entries in first level (# of shift register(s))
      W   width of shift register(s)
      M   # entries in 2nd level (# of counters, or other FSM)
      X   (yes-1/no-0) xor history and address for 2nd level index
    Sample predictors:
      GAg     : 1, W, 2^W, 0
      GAp     : 1, W, M (M > 2^W), 0
      PAg     : N, W, 2^W, 0
      PAp     : N, W, M (M == 2^(N+W)), 0
      gshare  : 1, W, 2^W, 1
  Predictor `comb' combines a bimodal and a 2-level predictor.

  The cache config parameter <config> has the following format:

    <name>:<nsets>:<bsize>:<assoc>:<repl>

    <name>   - name of the cache being defined
    <nsets>  - number of sets in the cache
    <bsize>  - block size of the cache
    <assoc>  - associativity of the cache
    <repl>   - block replacement strategy, 'l'-LRU, 'f'-FIFO, 'r'-random

    Examples:   -cache:dl1 dl1:4096:32:1:l
                -dtlb dtlb:128:4096:32:r

  Cache levels can be unified by pointing a level of the instruction cache
  hierarchy at the data cache hiearchy using the "dl1" and "dl2" cache
  configuration arguments.  Most sensible combinations are supported, e.g.,

    A unified l2 cache (il2 is pointed at dl2):
      -cache:il1 il1:128:64:1:l -cache:il2 dl2
      -cache:dl1 dl1:256:32:1:l -cache:dl2 ul2:1024:64:2:l

    Or, a fully unified cache hierarchy (il1 pointed at dl1):
      -cache:il1 dl1
      -cache:dl1 ul1:256:32:1:l -cache:dl2 ul2:1024:64:2:l



sim: ** starting performance simulation **

sim: ** simulation statistics **
sim_num_insn               10000000 # total number of instructions committed
sim_num_refs                2800620 # total number of loads and stores committed
sim_num_loads               2485347 # total number of loads committed
sim_num_stores          315273.0000 # total number of stores committed
sim_num_branches            1238780 # total number of branches committed
sim_elapsed_time                 10 # total simulation time in seconds
sim_inst_rate          1000000.0000 # simulation speed (in insts/sec)
sim_total_insn             10000000 # total number of instructions executed
sim_total_refs              2800620 # total number of loads and stores executed
sim_total_loads             2485347 # total number of loads executed
sim_total_stores        315273.0000 # total number of stores executed
sim_total_branches          1238780 # total number of branches executed
sim_cycle                   6931317 # total simulation time in cycles
sim_IPC                      1.4427 # instructions per cycle
sim_CPI                      0.6931 # cycles per instruction
sim_exec_BW                  1.4427 # total instructions (mis-spec + committed) per cycle
sim_IPB                      8.0725 # instruction per branch
IFQ_count                  27692857 # cumulative IFQ occupancy
IFQ_fcount                  6923171 # cumulative IFQ full count
ifq_occupancy                3.9953 # avg IFQ occupancy (insn's)
ifq_rate                     1.4427 # avg IFQ dispatch rate (insn/cycle)
ifq_latency                  2.7693 # avg IFQ occupant latency (cycle's)
ifq_full                     0.9988 # fraction of time (cycle's) IFQ was full
RUU_count                 107974081 # cumulative RUU occupancy
RUU_fcount                  5642882 # cumulative RUU full count
ruu_occupancy               15.5777 # avg RUU occupancy (insn's)
ruu_rate                     1.4427 # avg RUU dispatch rate (insn/cycle)
ruu_latency                 10.7974 # avg RUU occupant latency (cycle's)
ruu_full                     0.8141 # fraction of time (cycle's) RUU was full
LSQ_count                  33551145 # cumulative LSQ occupancy
LSQ_fcount                   557900 # cumulative LSQ full count
lsq_occupancy                4.8405 # avg LSQ occupancy (insn's)
lsq_rate                     1.4427 # avg LSQ dispatch rate (insn/cycle)
lsq_latency                  3.3551 # avg LSQ occupant latency (cycle's)
lsq_full                     0.0805 # fraction of time (cycle's) LSQ was full
sim_slip                  154325708 # total number of slip cycles
avg_sim_slip                15.4326 # the average slip between issue and retirement
il1.accesses               12023289 # total number of accesses
il1.hits                   12023215 # total number of hits
il1.misses                       74 # total number of misses
il1.replacements                  0 # total number of replacements
il1.writebacks                    0 # total number of writebacks
il1.invalidations                 0 # total number of invalidations
il1.miss_rate                0.0000 # miss rate (i.e., misses/ref)
il1.repl_rate                0.0000 # replacement rate (i.e., repls/ref)
il1.wb_rate                  0.0000 # writeback rate (i.e., wrbks/ref)
il1.inv_rate                 0.0000 # invalidation rate (i.e., invs/ref)
dl1.accesses                2796863 # total number of accesses
dl1.hits                    2271033 # total number of hits
dl1.misses                   525830 # total number of misses
dl1.replacements             525574 # total number of replacements
dl1.writebacks                52717 # total number of writebacks
dl1.invalidations                 0 # total number of invalidations
dl1.miss_rate                0.1880 # miss rate (i.e., misses/ref)
dl1.repl_rate                0.1879 # replacement rate (i.e., repls/ref)
dl1.wb_rate                  0.0188 # writeback rate (i.e., wrbks/ref)
dl1.inv_rate                 0.0000 # invalidation rate (i.e., invs/ref)
dl2.accesses                 578621 # total number of accesses
dl2.hits                     553761 # total number of hits
dl2.misses                    24860 # total number of misses
dl2.replacements              22812 # total number of replacements
dl2.writebacks                 9936 # total number of writebacks
dl2.invalidations                 0 # total number of invalidations
dl2.miss_rate                0.0430 # miss rate (i.e., misses/ref)
dl2.repl_rate                0.0394 # replacement rate (i.e., repls/ref)
dl2.wb_rate                  0.0172 # writeback rate (i.e., wrbks/ref)
dl2.inv_rate                 0.0000 # invalidation rate (i.e., invs/ref)
itlb.accesses              12023289 # total number of accesses
itlb.hits                  12023282 # total number of hits
itlb.misses                       7 # total number of misses
itlb.replacements                 0 # total number of replacements
itlb.writebacks                   0 # total number of writebacks
itlb.invalidations                0 # total number of invalidations
itlb.miss_rate               0.0000 # miss rate (i.e., misses/ref)
itlb.repl_rate               0.0000 # replacement rate (i.e., repls/ref)
itlb.wb_rate                 0.0000 # writeback rate (i.e., wrbks/ref)
itlb.inv_rate                0.0000 # invalidation rate (i.e., invs/ref)
dtlb.accesses               2800612 # total number of accesses
dtlb.hits                   2800541 # total number of hits
dtlb.misses                      71 # total number of misses
dtlb.replacements                 0 # total number of replacements
dtlb.writebacks                   0 # total number of writebacks
dtlb.invalidations                0 # total number of invalidations
dtlb.miss_rate               0.0000 # miss rate (i.e., misses/ref)
dtlb.repl_rate               0.0000 # replacement rate (i.e., repls/ref)
dtlb.wb_rate                 0.0000 # writeback rate (i.e., wrbks/ref)
dtlb.inv_rate                0.0000 # invalidation rate (i.e., invs/ref)
rename_power           2897051.2839 # total power usage of rename unit
bpred_power            19383620.7943 # total power usage of bpred unit
window_power           15278836.6618 # total power usage of instruction window
lsq_power              6676105.8219 # total power usage of load/store queue
regfile_power          24761936.6378 # total power usage of arch. regfile
icache_power           21019655.8453 # total power usage of icache
dcache_power           44628641.5281 # total power usage of dcache
dcache2_power          21507715.6544 # total power usage of dcache2
alu_power              131287291.0587 # total power usage of alu
falu_power             98986449.6064 # total power usage of falu
resultbus_power        15924998.0697 # total power usage of resultbus
clock_power            184541170.5296 # total power usage of clock
avg_rename_power             0.4180 # avg power usage of rename unit
avg_bpred_power              2.7965 # avg power usage of bpred unit
avg_window_power             2.2043 # avg power usage of instruction window
avg_lsq_power                0.9632 # avg power usage of lsq
avg_regfile_power            3.5725 # avg power usage of arch. regfile
avg_icache_power             3.0326 # avg power usage of icache
avg_dcache_power             6.4387 # avg power usage of dcache
avg_dcache2_power            3.1030 # avg power usage of dcache2
avg_alu_power               18.9412 # avg power usage of alu
avg_falu_power              14.2810 # avg power usage of falu
avg_resultbus_power          2.2975 # avg power usage of resultbus
avg_clock_power             26.6243 # avg power usage of clock
fetch_stage_power      40403276.6396 # total power usage of fetch stage
dispatch_stage_power   2897051.2839 # total power usage of dispatch stage
issue_stage_power      235303588.7947 # total power usage of issue stage
avg_fetch_power              5.8291 # average power of fetch unit per cycle
avg_dispatch_power           0.4180 # average power of dispatch unit per cycle
avg_issue_power             33.9479 # average power of issue unit per cycle
total_power            487907023.8857 # total power per cycle
avg_total_power_cycle       70.3917 # average total power per cycle
avg_total_power_cycle_nofp_nod2      53.0077 # average total power per cycle
avg_total_power_insn        48.7907 # average total power per insn
avg_total_power_insn_nofp_nod2      36.7413 # average total power per insn
rename_power_cc1       1675058.1294 # total power usage of rename unit_cc1
bpred_power_cc1              0.0000 # total power usage of bpred unit_cc1
window_power_cc1       9710179.5184 # total power usage of instruction window_cc1
lsq_power_cc1          1072612.7704 # total power usage of lsq_cc1
regfile_power_cc1      13288686.0183 # total power usage of arch. regfile_cc1
icache_power_cc1       12153575.6567 # total power usage of icache_cc1
dcache_power_cc1       12401407.7596 # total power usage of dcache_cc1
dcache2_power_cc1      1624299.7360 # total power usage of dcache2_cc1
alu_power_cc1          19945293.1102 # total power usage of alu_cc1
resultbus_power_cc1    9704222.3578 # total power usage of resultbus_cc1
clock_power_cc1        49402184.6400 # total power usage of clock_cc1
avg_rename_power_cc1         0.2417 # avg power usage of rename unit_cc1
avg_bpred_power_cc1          0.0000 # avg power usage of bpred unit_cc1
avg_window_power_cc1         1.4009 # avg power usage of instruction window_cc1
avg_lsq_power_cc1            0.1547 # avg power usage of lsq_cc1
avg_regfile_power_cc1        1.9172 # avg power usage of arch. regfile_cc1
avg_icache_power_cc1         1.7534 # avg power usage of icache_cc1
avg_dcache_power_cc1         1.7892 # avg power usage of dcache_cc1
avg_dcache2_power_cc1        0.2343 # avg power usage of dcache2_cc1
avg_alu_power_cc1            2.8776 # avg power usage of alu_cc1
avg_resultbus_power_cc1       1.4001 # avg power usage of resultbus_cc1
avg_clock_power_cc1          7.1274 # avg power usage of clock_cc1
fetch_stage_power_cc1  12153575.6567 # total power usage of fetch stage_cc1
dispatch_stage_power_cc1 1675058.1294 # total power usage of dispatch stage_cc1
issue_stage_power_cc1  54458015.2524 # total power usage of issue stage_cc1
avg_fetch_power_cc1          1.7534 # average power of fetch unit per cycle_cc1
avg_dispatch_power_cc1       0.2417 # average power of dispatch unit per cycle_cc1
avg_issue_power_cc1          7.8568 # average power of issue unit per cycle_cc1
total_power_cycle_cc1  130977519.6968 # total power per cycle_cc1
avg_total_power_cycle_cc1      18.8965 # average total power per cycle_cc1
avg_total_power_insn_cc1      13.0978 # average total power per insn_cc1
rename_power_cc2       1044913.7170 # total power usage of rename unit_cc2
bpred_power_cc2              0.0000 # total power usage of bpred unit_cc2
window_power_cc2       8068492.6508 # total power usage of instruction window_cc2
lsq_power_cc2           751980.1430 # total power usage of lsq_cc2
regfile_power_cc2      4042809.2919 # total power usage of arch. regfile_cc2
icache_power_cc2       12153575.6567 # total power usage of icache_cc2
dcache_power_cc2       9004075.0007 # total power usage of dcache_cc2
dcache2_power_cc2       897723.7614 # total power usage of dcache2_cc2
alu_power_cc2          11649135.4769 # total power usage of alu_cc2
resultbus_power_cc2    6056119.3229 # total power usage of resultbus_cc2
clock_power_cc2        32679765.1104 # total power usage of clock_cc2
avg_rename_power_cc2         0.1508 # avg power usage of rename unit_cc2
avg_bpred_power_cc2          0.0000 # avg power usage of bpred unit_cc2
avg_window_power_cc2         1.1641 # avg power usage of instruction window_cc2
avg_lsq_power_cc2            0.1085 # avg power usage of instruction lsq_cc2
avg_regfile_power_cc2        0.5833 # avg power usage of arch. regfile_cc2
avg_icache_power_cc2         1.7534 # avg power usage of icache_cc2
avg_dcache_power_cc2         1.2990 # avg power usage of dcache_cc2
avg_dcache2_power_cc2        0.1295 # avg power usage of dcache2_cc2
avg_alu_power_cc2            1.6807 # avg power usage of alu_cc2
avg_resultbus_power_cc2       0.8737 # avg power usage of resultbus_cc2
avg_clock_power_cc2          4.7148 # avg power usage of clock_cc2
fetch_stage_power_cc2  12153575.6567 # total power usage of fetch stage_cc2
dispatch_stage_power_cc2 1044913.7170 # total power usage of dispatch stage_cc2
issue_stage_power_cc2  36427526.3557 # total power usage of issue stage_cc2
avg_fetch_power_cc2          1.7534 # average power of fetch unit per cycle_cc2
avg_dispatch_power_cc2       0.1508 # average power of dispatch unit per cycle_cc2
avg_issue_power_cc2          5.2555 # average power of issue unit per cycle_cc2
total_power_cycle_cc2  86348590.1317 # total power per cycle_cc2
avg_total_power_cycle_cc2      12.4577 # average total power per cycle_cc2
avg_total_power_insn_cc2       8.6349 # average total power per insn_cc2
rename_power_cc3       1167113.0324 # total power usage of rename unit_cc3
bpred_power_cc3        1938362.0793 # total power usage of bpred unit_cc3
window_power_cc3       8588531.7172 # total power usage of instruction window_cc3
lsq_power_cc3          1311302.0146 # total power usage of lsq_cc3
regfile_power_cc3      5063667.1314 # total power usage of arch. regfile_cc3
icache_power_cc3       13040183.6748 # total power usage of icache_cc3
dcache_power_cc3       12237861.0238 # total power usage of dcache_cc3
dcache2_power_cc3      2886136.7217 # total power usage of dcache2_cc3
alu_power_cc3          22783335.2706 # total power usage of alu_cc3
resultbus_power_cc3    6625176.5831 # total power usage of resultbus_cc3
clock_power_cc3        46069384.2321 # total power usage of clock_cc3
avg_rename_power_cc3         0.1684 # avg power usage of rename unit_cc3
avg_bpred_power_cc3          0.2797 # avg power usage of bpred unit_cc3
avg_window_power_cc3         1.2391 # avg power usage of instruction window_cc3
avg_lsq_power_cc3            0.1892 # avg power usage of instruction lsq_cc3
avg_regfile_power_cc3        0.7305 # avg power usage of arch. regfile_cc3
avg_icache_power_cc3         1.8813 # avg power usage of icache_cc3
avg_dcache_power_cc3         1.7656 # avg power usage of dcache_cc3
avg_dcache2_power_cc3        0.4164 # avg power usage of dcache2_cc3
avg_alu_power_cc3            3.2870 # avg power usage of alu_cc3
avg_resultbus_power_cc3       0.9558 # avg power usage of resultbus_cc3
avg_clock_power_cc3          6.6466 # avg power usage of clock_cc3
fetch_stage_power_cc3  14978545.7540 # total power usage of fetch stage_cc3
dispatch_stage_power_cc3 1167113.0324 # total power usage of dispatch stage_cc3
issue_stage_power_cc3  54432343.3311 # total power usage of issue stage_cc3
avg_fetch_power_cc3          2.1610 # average power of fetch unit per cycle_cc3
avg_dispatch_power_cc3       0.1684 # average power of dispatch unit per cycle_cc3
avg_issue_power_cc3          7.8531 # average power of issue unit per cycle_cc3
total_power_cycle_cc3  121711053.4811 # total power per cycle_cc3
avg_total_power_cycle_cc3      17.5596 # average total power per cycle_cc3
avg_total_power_insn_cc3      12.1711 # average total power per insn_cc3
total_rename_access        10000000 # total number accesses of rename unit
total_bpred_access                0 # total number accesses of bpred unit
total_window_access        36933247 # total number accesses of instruction window
total_lsq_access            2804361 # total number accesses of load/store queue
total_regfile_access       15009839 # total number accesses of arch. regfile
total_icache_access        12023289 # total number accesses of icache
total_dcache_access         2796863 # total number accesses of dcache
total_dcache2_access         578621 # total number accesses of dcache2
total_alu_access            9998978 # total number accesses of alu
total_resultbus_access     11246555 # total number accesses of resultbus
avg_rename_access            1.4427 # avg number accesses of rename unit
avg_bpred_access             0.0000 # avg number accesses of bpred unit
avg_window_access            5.3285 # avg number accesses of instruction window
avg_lsq_access               0.4046 # avg number accesses of lsq
avg_regfile_access           2.1655 # avg number accesses of arch. regfile
avg_icache_access            1.7346 # avg number accesses of icache
avg_dcache_access            0.4035 # avg number accesses of dcache
avg_dcache2_access           0.0835 # avg number accesses of dcache2
avg_alu_access               1.4426 # avg number accesses of alu
avg_resultbus_access         1.6226 # avg number accesses of resultbus
max_rename_access                 4 # max number accesses of rename unit
max_bpred_access                  0 # max number accesses of bpred unit
max_window_access                17 # max number accesses of instruction window
max_lsq_access                    5 # max number accesses of load/store queue
max_regfile_access               10 # max number accesses of arch. regfile
max_icache_access                 4 # max number accesses of icache
max_dcache_access                 4 # max number accesses of dcache
max_dcache2_access                5 # max number accesses of dcache2
max_alu_access                    4 # max number accesses of alu
max_resultbus_access              6 # max number accesses of resultbus
max_cycle_power_cc1         37.9367 # maximum cycle power usage of cc1
max_cycle_power_cc2         30.4768 # maximum cycle power usage of cc2
max_cycle_power_cc3         34.0518 # maximum cycle power usage of cc3
sim_invalid_addrs                 0 # total non-speculative bogus addresses seen (debug var)
ld_text_base           0x0120000000 # program text (code) segment base
ld_text_size                 212992 # program text (code) size in bytes
ld_data_base           0x0140000000 # program initialized data segment base
ld_data_size                 402416 # program init'ed `.data' and uninit'ed `.bss' size in bytes
ld_stack_base          0x011ff9b000 # program stack segment base (highest address in stack)
ld_stack_size                 16384 # program initial stack size
ld_prog_entry          0x012000967c # program entry point (initial PC)
ld_environ_base        0x011ff96ef0 # program environment base address address
ld_target_big_endian              0 # target executable endian-ness, non-zero if big endian
mem.page_count                23132 # total number of pages allocated
mem.page_mem                185056k # total size of memory pages allocated
mem.ptab_misses              616669 # total first level page table misses
mem.ptab_accesses         429540664 # total page table accesses
mem.ptab_miss_rate           0.0014 # first level page table miss rate

