sim-outorder: SimpleScalar/Alpha Tool Set version 3.0 of August, 2003.
Copyright (c) 1994-2003 by Todd M. Austin, Ph.D. and SimpleScalar, LLC.
All Rights Reserved. This version of SimpleScalar is licensed for academic
non-commercial use.  No portion of this work may be used by any commercial
entity, or for any commercial purpose, without the prior written permission
of SimpleScalar, LLC (info@simplescalar.com).


Processor Parameters:
Issue Width: 4
Window Size: 16
Number of Virtual Registers: 32
Number of Physical Registers: 16
Datapath Width: 64
Total Power Consumption: 72.3917
Branch Predictor Power Consumption: 2.79653  (3.97%)
 branch target buffer power (W): 2.49493
 local predict power (W): 0.0348099
 global predict power (W): 0.0996078
 chooser power (W): 0.0702439
 RAS power (W): 0.0969383
Rename Logic Power Consumption: 0.417965  (0.594%)
 Instruction Decode Power (W): 0.0159915
 RAT decode_power (W): 0.113514
 RAT wordline_power (W): 0.0307815
 RAT bitline_power (W): 0.246771
 DCL Comparators (W): 0.0109075
Instruction Window Power Consumption: 2.20432  (3.13%)
 tagdrive (W): 0.0943488
 tagmatch (W): 0.033695
 Selection Logic (W): 0.0134217
 decode_power (W): 0.0532503
 wordline_power (W): 0.0844643
 bitline_power (W): 1.92514
Load/Store Queue Power Consumption: 0.96318  (1.37%)
 tagdrive (W): 0.457232
 tagmatch (W): 0.100774
 decode_power (W): 0.00799577
 wordline_power (W): 0.0150119
 bitline_power (W): 0.382166
Arch. Register File Power Consumption: 3.57247  (5.08%)
 decode_power (W): 0.113514
 wordline_power (W): 0.0844643
 bitline_power (W): 3.37449
Result Bus Power Consumption: 2.29754  (3.26%)
Total Clock Power: 26.6243  (37.8%)
Int ALU Power: 4.66013  (6.62%)
FP ALU Power: 14.281  (20.3%)
Instruction Cache Power Consumption: 2.76773  (3.93%)
 decode_power (W): 0.151353
 wordline_power (W): 0.180479
 bitline_power (W): 1.42251
 senseamp_power (W): 0.768
 tagarray_power (W): 0.245382
Itlb_power (W): 0.264834 (0.376%)
Data Cache Power Consumption: 5.53546  (7.86%)
 decode_power (W): 0.302705
 wordline_power (W): 0.360958
 bitline_power (W): 2.84503
 senseamp_power (W): 1.536
 tagarray_power (W): 0.490764
Dtlb_power (W): 0.903238 (1.28%)
Level 2 Cache Power Consumption: 3.10298 (4.41%)
 decode_power (W): 0.19487
 wordline_power (W): 0.0430878
 bitline_power (W): 1.77274
 senseamp_power (W): 0.192
 tagarray_power (W): 0.900275
sim: loading EIO file: ../benchmarks/164.gzip.log-ref.eio.gz
sim: command line: ./sim-outorder -config ../configs/current.config ../benchmarks/164.gzip.log-ref.eio.gz 

sim: simulation started @ Mon Nov 23 19:16:11 2015, options follow:

sim-outorder: This simulator implements a very detailed out-of-order issue
superscalar processor with a two-level memory system and speculative
execution support.  This simulator is a performance simulator, tracking the
latency of all pipeline operations.

# -config                     # load configuration from a file
# -dumpconfig                 # dump configuration to a file
# -h                    false # print help message    
# -v                    false # verbose operation     
# -d                    false # enable debug message  
# -i                    false # start in Dlite debugger
-seed                       1 # random number generator seed (0 for timer seed)
# -q                    false # initialize and terminate immediately
# -chkpt               <null> # restore EIO trace execution from <fname>
# -redir:sim     ../results/10_00_baseline/164.gzip.log-ref.eio.gz.out # redirect simulator output to file (non-interactive only)
# -redir:prog       /dev/null # redirect simulated program output to file
-nice                       0 # simulator scheduling priority
-freq            600000000.0000 # frequency             
-max:inst            10000000 # maximum number of inst's to execute
-fastfwd                    0 # number of insts skipped before timing starts
# -ptrace              <null> # generate pipetrace, i.e., <fname|stdout|stderr> <range>
-fetch:ifqsize              4 # instruction fetch queue size (in insts)
-fetch:mplat                3 # extra branch mis-prediction latency
-fetch:speed                1 # speed of front-end of machine relative to execution core
-bpred                perfect # branch predictor type {nottaken|taken|perfect|bimod|2lev|comb}
-bpred:bimod     2048 # bimodal predictor config (<table size>)
-bpred:2lev      1 256 2 0 # 2-level predictor config (<l1size> <l2size> <hist_size> <xor>)
-bpred:comb      1024 # combining predictor config (<meta_table_size>)
-bpred:ras                  8 # return address stack size (0 for no return stack)
-bpred:btb       512 4 # BTB config (<num_sets> <associativity>)
# -bpred:spec_update       <null> # speculative predictors update in {ID|WB} (default non-spec)
-decode:width               4 # instruction decode B/W (insts/cycle)
-issue:width                4 # instruction issue B/W (insts/cycle)
-issue:inorder          false # run pipeline with in-order issue
-issue:wrongpath         true # issue instructions down wrong execution paths
-commit:width               4 # instruction commit B/W (insts/cycle)
-ruu:size                  16 # register update unit (RUU) size
-lsq:size                   8 # load/store queue (LSQ) size
-cache:dl1       dl1:32:64:8:f # l1 data cache config, i.e., {<config>|none}
-cache:dl1lat               1 # l1 data cache hit latency (in cycles)
-cache:dl2       dl2:256:64:8:f # l2 data cache config, i.e., {<config>|none}
-cache:dl2lat               2 # l2 data cache hit latency (in cycles)
-cache:il1       il1:32:64:8:f # l1 inst cache config, i.e., {<config>|dl1|dl2|none}
-cache:il1lat               1 # l1 instruction cache hit latency (in cycles)
-cache:il2                dl2 # l2 instruction cache config, i.e., {<config>|dl2|none}
-cache:il2lat               2 # l2 instruction cache hit latency (in cycles)
-cache:flush            false # flush caches on system calls
-cache:icompress        false # convert 64-bit inst addresses to 32-bit inst equivalents
-mem:lat         103 1 # memory access latency (<first_chunk> <inter_chunk>)
-mem:width                  8 # memory access bus width (in bytes)
-tlb:itlb        itlb:16:4096:4:l # instruction TLB config, i.e., {<config>|none}
-tlb:dtlb        dtlb:32:4096:4:l # data TLB config, i.e., {<config>|none}
-tlb:lat                   30 # inst/data TLB miss latency (in cycles)
-res:ialu                   4 # total number of integer ALU's available
-res:imult                  1 # total number of integer multiplier/dividers available
-res:memport                2 # total number of memory system ports available (to CPU)
-res:fpalu                  4 # total number of floating point ALU's available
-res:fpmult                 1 # total number of floating point multiplier/dividers available
# -pcstat              <null> # profile stat(s) against text addr's (mult uses ok)
-bugcompat              false # operate in backward-compatible bugs mode (for testing only)

  Pipetrace range arguments are formatted as follows:

    {{@|#}<start>}:{{@|#|+}<end>}

  Both ends of the range are optional, if neither are specified, the entire
  execution is traced.  Ranges that start with a `@' designate an address
  range to be traced, those that start with an `#' designate a cycle count
  range.  All other range values represent an instruction count range.  The
  second argument, if specified with a `+', indicates a value relative
  to the first argument, e.g., 1000:+100 == 1000:1100.  Program symbols may
  be used in all contexts.

    Examples:   -ptrace FOO.trc #0:#1000
                -ptrace BAR.trc @2000:
                -ptrace BLAH.trc :1500
                -ptrace UXXE.trc :
                -ptrace FOOBAR.trc @main:+278

  Branch predictor configuration examples for 2-level predictor:
    Configurations:   N, M, W, X
      N   # entries in first level (# of shift register(s))
      W   width of shift register(s)
      M   # entries in 2nd level (# of counters, or other FSM)
      X   (yes-1/no-0) xor history and address for 2nd level index
    Sample predictors:
      GAg     : 1, W, 2^W, 0
      GAp     : 1, W, M (M > 2^W), 0
      PAg     : N, W, 2^W, 0
      PAp     : N, W, M (M == 2^(N+W)), 0
      gshare  : 1, W, 2^W, 1
  Predictor `comb' combines a bimodal and a 2-level predictor.

  The cache config parameter <config> has the following format:

    <name>:<nsets>:<bsize>:<assoc>:<repl>

    <name>   - name of the cache being defined
    <nsets>  - number of sets in the cache
    <bsize>  - block size of the cache
    <assoc>  - associativity of the cache
    <repl>   - block replacement strategy, 'l'-LRU, 'f'-FIFO, 'r'-random

    Examples:   -cache:dl1 dl1:4096:32:1:l
                -dtlb dtlb:128:4096:32:r

  Cache levels can be unified by pointing a level of the instruction cache
  hierarchy at the data cache hiearchy using the "dl1" and "dl2" cache
  configuration arguments.  Most sensible combinations are supported, e.g.,

    A unified l2 cache (il2 is pointed at dl2):
      -cache:il1 il1:128:64:1:l -cache:il2 dl2
      -cache:dl1 dl1:256:32:1:l -cache:dl2 ul2:1024:64:2:l

    Or, a fully unified cache hierarchy (il1 pointed at dl1):
      -cache:il1 dl1
      -cache:dl1 ul1:256:32:1:l -cache:dl2 ul2:1024:64:2:l



sim: ** starting performance simulation **

sim: ** simulation statistics **
sim_num_insn               10000003 # total number of instructions committed
sim_num_refs                2991981 # total number of loads and stores committed
sim_num_loads               2464477 # total number of loads committed
sim_num_stores          527504.0000 # total number of stores committed
sim_num_branches            1165861 # total number of branches committed
sim_elapsed_time                  9 # total simulation time in seconds
sim_inst_rate          1111111.4444 # simulation speed (in insts/sec)
sim_total_insn             10000003 # total number of instructions executed
sim_total_refs              2991981 # total number of loads and stores executed
sim_total_loads             2464477 # total number of loads executed
sim_total_stores        527504.0000 # total number of stores executed
sim_total_branches          1165861 # total number of branches executed
sim_cycle                   6547664 # total simulation time in cycles
sim_IPC                      1.5273 # instructions per cycle
sim_CPI                      0.6548 # cycles per instruction
sim_exec_BW                  1.5273 # total instructions (mis-spec + committed) per cycle
sim_IPB                      8.5774 # instruction per branch
IFQ_count                  26122206 # cumulative IFQ occupancy
IFQ_fcount                  6530389 # cumulative IFQ full count
ifq_occupancy                3.9895 # avg IFQ occupancy (insn's)
ifq_rate                     1.5273 # avg IFQ dispatch rate (insn/cycle)
ifq_latency                  2.6122 # avg IFQ occupant latency (cycle's)
ifq_full                     0.9974 # fraction of time (cycle's) IFQ was full
RUU_count                 100692092 # cumulative RUU occupancy
RUU_fcount                  4840839 # cumulative RUU full count
ruu_occupancy               15.3783 # avg RUU occupancy (insn's)
ruu_rate                     1.5273 # avg RUU dispatch rate (insn/cycle)
ruu_latency                 10.0692 # avg RUU occupant latency (cycle's)
ruu_full                     0.7393 # fraction of time (cycle's) RUU was full
LSQ_count                  33076156 # cumulative LSQ occupancy
LSQ_fcount                   863137 # cumulative LSQ full count
lsq_occupancy                5.0516 # avg LSQ occupancy (insn's)
lsq_rate                     1.5273 # avg LSQ dispatch rate (insn/cycle)
lsq_latency                  3.3076 # avg LSQ occupant latency (cycle's)
lsq_full                     0.1318 # fraction of time (cycle's) LSQ was full
sim_slip                  146758843 # total number of slip cycles
avg_sim_slip                14.6759 # the average slip between issue and retirement
il1.accesses               11746911 # total number of accesses
il1.hits                   11746754 # total number of hits
il1.misses                      157 # total number of misses
il1.replacements                  0 # total number of replacements
il1.writebacks                    0 # total number of writebacks
il1.invalidations                 0 # total number of invalidations
il1.miss_rate                0.0000 # miss rate (i.e., misses/ref)
il1.repl_rate                0.0000 # replacement rate (i.e., repls/ref)
il1.wb_rate                  0.0000 # writeback rate (i.e., wrbks/ref)
il1.inv_rate                 0.0000 # invalidation rate (i.e., invs/ref)
dl1.accesses                2989940 # total number of accesses
dl1.hits                    2519245 # total number of hits
dl1.misses                   470695 # total number of misses
dl1.replacements             470439 # total number of replacements
dl1.writebacks                66531 # total number of writebacks
dl1.invalidations                 0 # total number of invalidations
dl1.miss_rate                0.1574 # miss rate (i.e., misses/ref)
dl1.repl_rate                0.1573 # replacement rate (i.e., repls/ref)
dl1.wb_rate                  0.0223 # writeback rate (i.e., wrbks/ref)
dl1.inv_rate                 0.0000 # invalidation rate (i.e., invs/ref)
dl2.accesses                 537383 # total number of accesses
dl2.hits                     515679 # total number of hits
dl2.misses                    21704 # total number of misses
dl2.replacements              19656 # total number of replacements
dl2.writebacks                 9112 # total number of writebacks
dl2.invalidations                 0 # total number of invalidations
dl2.miss_rate                0.0404 # miss rate (i.e., misses/ref)
dl2.repl_rate                0.0366 # replacement rate (i.e., repls/ref)
dl2.wb_rate                  0.0170 # writeback rate (i.e., wrbks/ref)
dl2.inv_rate                 0.0000 # invalidation rate (i.e., invs/ref)
itlb.accesses              11746911 # total number of accesses
itlb.hits                  11746902 # total number of hits
itlb.misses                       9 # total number of misses
itlb.replacements                 0 # total number of replacements
itlb.writebacks                   0 # total number of writebacks
itlb.invalidations                0 # total number of invalidations
itlb.miss_rate               0.0000 # miss rate (i.e., misses/ref)
itlb.repl_rate               0.0000 # replacement rate (i.e., repls/ref)
itlb.wb_rate                 0.0000 # writeback rate (i.e., wrbks/ref)
itlb.inv_rate                0.0000 # invalidation rate (i.e., invs/ref)
dtlb.accesses               2991980 # total number of accesses
dtlb.hits                   2991900 # total number of hits
dtlb.misses                      80 # total number of misses
dtlb.replacements                 0 # total number of replacements
dtlb.writebacks                   0 # total number of writebacks
dtlb.invalidations                0 # total number of invalidations
dtlb.miss_rate               0.0000 # miss rate (i.e., misses/ref)
dtlb.repl_rate               0.0000 # replacement rate (i.e., repls/ref)
dtlb.wb_rate                 0.0000 # writeback rate (i.e., wrbks/ref)
dtlb.inv_rate                0.0000 # invalidation rate (i.e., invs/ref)
rename_power           2736697.5711 # total power usage of rename unit
bpred_power            18310724.5074 # total power usage of bpred unit
window_power           14433142.9036 # total power usage of instruction window
lsq_power              6306578.9300 # total power usage of load/store queue
regfile_power          23391346.9967 # total power usage of arch. regfile
icache_power           19856203.9323 # total power usage of icache
dcache_power           42158416.5757 # total power usage of dcache
dcache2_power          20317249.3066 # total power usage of dcache2
alu_power              124020452.2925 # total power usage of alu
falu_power             93507483.8701 # total power usage of falu
resultbus_power        15043538.8486 # total power usage of resultbus
clock_power            174326694.1621 # total power usage of clock
avg_rename_power             0.4180 # avg power usage of rename unit
avg_bpred_power              2.7965 # avg power usage of bpred unit
avg_window_power             2.2043 # avg power usage of instruction window
avg_lsq_power                0.9632 # avg power usage of lsq
avg_regfile_power            3.5725 # avg power usage of arch. regfile
avg_icache_power             3.0326 # avg power usage of icache
avg_dcache_power             6.4387 # avg power usage of dcache
avg_dcache2_power            3.1030 # avg power usage of dcache2
avg_alu_power               18.9412 # avg power usage of alu
avg_falu_power              14.2810 # avg power usage of falu
avg_resultbus_power          2.2975 # avg power usage of resultbus
avg_clock_power             26.6243 # avg power usage of clock
fetch_stage_power      38166928.4397 # total power usage of fetch stage
dispatch_stage_power   2736697.5711 # total power usage of dispatch stage
issue_stage_power      222279378.8570 # total power usage of issue stage
avg_fetch_power              5.8291 # average power of fetch unit per cycle
avg_dispatch_power           0.4180 # average power of dispatch unit per cycle
avg_issue_power             33.9479 # average power of issue unit per cycle
total_power            460901046.0266 # total power per cycle
avg_total_power_cycle       70.3917 # average total power per cycle
avg_total_power_cycle_nofp_nod2      53.0077 # average total power per cycle
avg_total_power_insn        46.0901 # average total power per insn
avg_total_power_insn_nofp_nod2      34.7076 # average total power per insn
rename_power_cc1       1617207.5263 # total power usage of rename unit_cc1
bpred_power_cc1              0.0000 # total power usage of bpred unit_cc1
window_power_cc1       9705870.0548 # total power usage of instruction window_cc1
lsq_power_cc1          1102915.9936 # total power usage of lsq_cc1
regfile_power_cc1      13067886.5363 # total power usage of arch. regfile_cc1
icache_power_cc1       11734020.5583 # total power usage of icache_cc1
dcache_power_cc1       12926934.1094 # total power usage of dcache_cc1
dcache2_power_cc1      1453587.9174 # total power usage of dcache2_cc1
alu_power_cc1          19772835.6624 # total power usage of alu_cc1
resultbus_power_cc1    9664697.4403 # total power usage of resultbus_cc1
clock_power_cc1        49274394.7849 # total power usage of clock_cc1
avg_rename_power_cc1         0.2470 # avg power usage of rename unit_cc1
avg_bpred_power_cc1          0.0000 # avg power usage of bpred unit_cc1
avg_window_power_cc1         1.4823 # avg power usage of instruction window_cc1
avg_lsq_power_cc1            0.1684 # avg power usage of lsq_cc1
avg_regfile_power_cc1        1.9958 # avg power usage of arch. regfile_cc1
avg_icache_power_cc1         1.7921 # avg power usage of icache_cc1
avg_dcache_power_cc1         1.9743 # avg power usage of dcache_cc1
avg_dcache2_power_cc1        0.2220 # avg power usage of dcache2_cc1
avg_alu_power_cc1            3.0198 # avg power usage of alu_cc1
avg_resultbus_power_cc1       1.4761 # avg power usage of resultbus_cc1
avg_clock_power_cc1          7.5255 # avg power usage of clock_cc1
fetch_stage_power_cc1  11734020.5583 # total power usage of fetch stage_cc1
dispatch_stage_power_cc1 1617207.5263 # total power usage of dispatch stage_cc1
issue_stage_power_cc1  54626841.1780 # total power usage of issue stage_cc1
avg_fetch_power_cc1          1.7921 # average power of fetch unit per cycle_cc1
avg_dispatch_power_cc1       0.2470 # average power of dispatch unit per cycle_cc1
avg_issue_power_cc1          8.3430 # average power of issue unit per cycle_cc1
total_power_cycle_cc1  130320350.5837 # total power per cycle_cc1
avg_total_power_cycle_cc1      19.9033 # average total power per cycle_cc1
avg_total_power_insn_cc1      13.0320 # average total power per insn_cc1
rename_power_cc2       1044914.0304 # total power usage of rename unit_cc2
bpred_power_cc2              0.0000 # total power usage of bpred unit_cc2
window_power_cc2       8043788.1412 # total power usage of instruction window_cc2
lsq_power_cc2           784643.0785 # total power usage of lsq_cc2
regfile_power_cc2      4000714.7871 # total power usage of arch. regfile_cc2
icache_power_cc2       11734020.5583 # total power usage of icache_cc2
dcache_power_cc2       9625657.0335 # total power usage of dcache_cc2
dcache2_power_cc2       833743.4834 # total power usage of dcache2_cc2
alu_power_cc2          11648251.2171 # total power usage of alu_cc2
resultbus_power_cc2    6084148.6281 # total power usage of resultbus_cc2
clock_power_cc2        32958880.4461 # total power usage of clock_cc2
avg_rename_power_cc2         0.1596 # avg power usage of rename unit_cc2
avg_bpred_power_cc2          0.0000 # avg power usage of bpred unit_cc2
avg_window_power_cc2         1.2285 # avg power usage of instruction window_cc2
avg_lsq_power_cc2            0.1198 # avg power usage of instruction lsq_cc2
avg_regfile_power_cc2        0.6110 # avg power usage of arch. regfile_cc2
avg_icache_power_cc2         1.7921 # avg power usage of icache_cc2
avg_dcache_power_cc2         1.4701 # avg power usage of dcache_cc2
avg_dcache2_power_cc2        0.1273 # avg power usage of dcache2_cc2
avg_alu_power_cc2            1.7790 # avg power usage of alu_cc2
avg_resultbus_power_cc2       0.9292 # avg power usage of resultbus_cc2
avg_clock_power_cc2          5.0337 # avg power usage of clock_cc2
fetch_stage_power_cc2  11734020.5583 # total power usage of fetch stage_cc2
dispatch_stage_power_cc2 1044914.0304 # total power usage of dispatch stage_cc2
issue_stage_power_cc2  37020231.5819 # total power usage of issue stage_cc2
avg_fetch_power_cc2          1.7921 # average power of fetch unit per cycle_cc2
avg_dispatch_power_cc2       0.1596 # average power of dispatch unit per cycle_cc2
avg_issue_power_cc2          5.6540 # average power of issue unit per cycle_cc2
total_power_cycle_cc2  86758761.4038 # total power per cycle_cc2
avg_total_power_cycle_cc2      13.2503 # average total power per cycle_cc2
avg_total_power_insn_cc2       8.6759 # average total power per insn_cc2
rename_power_cc3       1156863.0349 # total power usage of rename unit_cc3
bpred_power_cc3        1831072.4507 # total power usage of bpred unit_cc3
window_power_cc3       8478017.8859 # total power usage of instruction window_cc3
lsq_power_cc3          1303526.8109 # total power usage of lsq_cc3
regfile_power_cc3      4903349.8790 # total power usage of arch. regfile_cc3
icache_power_cc3       12546238.8949 # total power usage of icache_cc3
dcache_power_cc3       12560438.3946 # total power usage of dcache_cc3
dcache2_power_cc3      2720230.1729 # total power usage of dcache2_cc3
alu_power_cc3          22073012.8787 # total power usage of alu_cc3
resultbus_power_cc3    6567742.1178 # total power usage of resultbus_cc3
clock_power_cc3        45341460.5166 # total power usage of clock_cc3
avg_rename_power_cc3         0.1767 # avg power usage of rename unit_cc3
avg_bpred_power_cc3          0.2797 # avg power usage of bpred unit_cc3
avg_window_power_cc3         1.2948 # avg power usage of instruction window_cc3
avg_lsq_power_cc3            0.1991 # avg power usage of instruction lsq_cc3
avg_regfile_power_cc3        0.7489 # avg power usage of arch. regfile_cc3
avg_icache_power_cc3         1.9161 # avg power usage of icache_cc3
avg_dcache_power_cc3         1.9183 # avg power usage of dcache_cc3
avg_dcache2_power_cc3        0.4155 # avg power usage of dcache2_cc3
avg_alu_power_cc3            3.3711 # avg power usage of alu_cc3
avg_resultbus_power_cc3       1.0031 # avg power usage of resultbus_cc3
avg_clock_power_cc3          6.9248 # avg power usage of clock_cc3
fetch_stage_power_cc3  14377311.3456 # total power usage of fetch stage_cc3
dispatch_stage_power_cc3 1156863.0349 # total power usage of dispatch stage_cc3
issue_stage_power_cc3  53702968.2609 # total power usage of issue stage_cc3
avg_fetch_power_cc3          2.1958 # average power of fetch unit per cycle_cc3
avg_dispatch_power_cc3       0.1767 # average power of dispatch unit per cycle_cc3
avg_issue_power_cc3          8.2019 # average power of issue unit per cycle_cc3
total_power_cycle_cc3  119481953.0371 # total power per cycle_cc3
avg_total_power_cycle_cc3      18.2480 # average total power per cycle_cc3
avg_total_power_insn_cc3      11.9482 # average total power per insn_cc3
total_rename_access        10000003 # total number accesses of rename unit
total_bpred_access                0 # total number accesses of bpred unit
total_window_access        36778213 # total number accesses of instruction window
total_lsq_access            2994020 # total number accesses of load/store queue
total_regfile_access       14868692 # total number accesses of arch. regfile
total_icache_access        11746911 # total number accesses of icache
total_dcache_access         2989940 # total number accesses of dcache
total_dcache2_access         537383 # total number accesses of dcache2
total_alu_access            9998219 # total number accesses of alu
total_resultbus_access     11298607 # total number accesses of resultbus
avg_rename_access            1.5273 # avg number accesses of rename unit
avg_bpred_access             0.0000 # avg number accesses of bpred unit
avg_window_access            5.6170 # avg number accesses of instruction window
avg_lsq_access               0.4573 # avg number accesses of lsq
avg_regfile_access           2.2708 # avg number accesses of arch. regfile
avg_icache_access            1.7941 # avg number accesses of icache
avg_dcache_access            0.4566 # avg number accesses of dcache
avg_dcache2_access           0.0821 # avg number accesses of dcache2
avg_alu_access               1.5270 # avg number accesses of alu
avg_resultbus_access         1.7256 # avg number accesses of resultbus
max_rename_access                 4 # max number accesses of rename unit
max_bpred_access                  0 # max number accesses of bpred unit
max_window_access                17 # max number accesses of instruction window
max_lsq_access                    5 # max number accesses of load/store queue
max_regfile_access               12 # max number accesses of arch. regfile
max_icache_access                 4 # max number accesses of icache
max_dcache_access                 4 # max number accesses of dcache
max_dcache2_access                5 # max number accesses of dcache2
max_alu_access                    4 # max number accesses of alu
max_resultbus_access              6 # max number accesses of resultbus
max_cycle_power_cc1         38.1760 # maximum cycle power usage of cc1
max_cycle_power_cc2         30.7504 # maximum cycle power usage of cc2
max_cycle_power_cc3         34.2996 # maximum cycle power usage of cc3
sim_invalid_addrs                 0 # total non-speculative bogus addresses seen (debug var)
ld_text_base           0x0120000000 # program text (code) segment base
ld_text_size                 212992 # program text (code) size in bytes
ld_data_base           0x0140000000 # program initialized data segment base
ld_data_size                 402416 # program init'ed `.data' and uninit'ed `.bss' size in bytes
ld_stack_base          0x011ff9b000 # program stack segment base (highest address in stack)
ld_stack_size                 16384 # program initial stack size
ld_prog_entry          0x01200095e0 # program entry point (initial PC)
ld_environ_base        0x011ff96ef0 # program environment base address address
ld_target_big_endian              0 # target executable endian-ness, non-zero if big endian
mem.page_count                23129 # total number of pages allocated
mem.page_mem                185032k # total size of memory pages allocated
mem.ptab_misses              709719 # total first level page table misses
mem.ptab_accesses         428743058 # total page table accesses
mem.ptab_miss_rate           0.0017 # first level page table miss rate

