sim-outorder: SimpleScalar/Alpha Tool Set version 3.0 of August, 2003.
Copyright (c) 1994-2003 by Todd M. Austin, Ph.D. and SimpleScalar, LLC.
All Rights Reserved. This version of SimpleScalar is licensed for academic
non-commercial use.  No portion of this work may be used by any commercial
entity, or for any commercial purpose, without the prior written permission
of SimpleScalar, LLC (info@simplescalar.com).


Processor Parameters:
Issue Width: 4
Window Size: 16
Number of Virtual Registers: 32
Number of Physical Registers: 16
Datapath Width: 64
Total Power Consumption: 72.3917
Branch Predictor Power Consumption: 2.79653  (3.97%)
 branch target buffer power (W): 2.49493
 local predict power (W): 0.0348099
 global predict power (W): 0.0996078
 chooser power (W): 0.0702439
 RAS power (W): 0.0969383
Rename Logic Power Consumption: 0.417965  (0.594%)
 Instruction Decode Power (W): 0.0159915
 RAT decode_power (W): 0.113514
 RAT wordline_power (W): 0.0307815
 RAT bitline_power (W): 0.246771
 DCL Comparators (W): 0.0109075
Instruction Window Power Consumption: 2.20432  (3.13%)
 tagdrive (W): 0.0943488
 tagmatch (W): 0.033695
 Selection Logic (W): 0.0134217
 decode_power (W): 0.0532503
 wordline_power (W): 0.0844643
 bitline_power (W): 1.92514
Load/Store Queue Power Consumption: 0.96318  (1.37%)
 tagdrive (W): 0.457232
 tagmatch (W): 0.100774
 decode_power (W): 0.00799577
 wordline_power (W): 0.0150119
 bitline_power (W): 0.382166
Arch. Register File Power Consumption: 3.57247  (5.08%)
 decode_power (W): 0.113514
 wordline_power (W): 0.0844643
 bitline_power (W): 3.37449
Result Bus Power Consumption: 2.29754  (3.26%)
Total Clock Power: 26.6243  (37.8%)
Int ALU Power: 4.66013  (6.62%)
FP ALU Power: 14.281  (20.3%)
Instruction Cache Power Consumption: 2.76773  (3.93%)
 decode_power (W): 0.151353
 wordline_power (W): 0.180479
 bitline_power (W): 1.42251
 senseamp_power (W): 0.768
 tagarray_power (W): 0.245382
Itlb_power (W): 0.264834 (0.376%)
Data Cache Power Consumption: 5.53546  (7.86%)
 decode_power (W): 0.302705
 wordline_power (W): 0.360958
 bitline_power (W): 2.84503
 senseamp_power (W): 1.536
 tagarray_power (W): 0.490764
Dtlb_power (W): 0.903238 (1.28%)
Level 2 Cache Power Consumption: 3.10298 (4.41%)
 decode_power (W): 0.19487
 wordline_power (W): 0.0430878
 bitline_power (W): 1.77274
 senseamp_power (W): 0.192
 tagarray_power (W): 0.900275
sim: loading EIO file: ../benchmarks/176.gcc.00-integrate-ref.eio.gz
sim: command line: ./sim-outorder -config ../configs/current.config ../benchmarks/176.gcc.00-integrate-ref.eio.gz 

sim: simulation started @ Mon Nov 23 19:15:58 2015, options follow:

sim-outorder: This simulator implements a very detailed out-of-order issue
superscalar processor with a two-level memory system and speculative
execution support.  This simulator is a performance simulator, tracking the
latency of all pipeline operations.

# -config                     # load configuration from a file
# -dumpconfig                 # dump configuration to a file
# -h                    false # print help message    
# -v                    false # verbose operation     
# -d                    false # enable debug message  
# -i                    false # start in Dlite debugger
-seed                       1 # random number generator seed (0 for timer seed)
# -q                    false # initialize and terminate immediately
# -chkpt               <null> # restore EIO trace execution from <fname>
# -redir:sim     ../results/10_00_baseline/176.gcc.00-integrate-ref.eio.gz.out # redirect simulator output to file (non-interactive only)
# -redir:prog       /dev/null # redirect simulated program output to file
-nice                       0 # simulator scheduling priority
-freq            600000000.0000 # frequency             
-max:inst            10000000 # maximum number of inst's to execute
-fastfwd                    0 # number of insts skipped before timing starts
# -ptrace              <null> # generate pipetrace, i.e., <fname|stdout|stderr> <range>
-fetch:ifqsize              4 # instruction fetch queue size (in insts)
-fetch:mplat                3 # extra branch mis-prediction latency
-fetch:speed                1 # speed of front-end of machine relative to execution core
-bpred                perfect # branch predictor type {nottaken|taken|perfect|bimod|2lev|comb}
-bpred:bimod     2048 # bimodal predictor config (<table size>)
-bpred:2lev      1 256 2 0 # 2-level predictor config (<l1size> <l2size> <hist_size> <xor>)
-bpred:comb      1024 # combining predictor config (<meta_table_size>)
-bpred:ras                  8 # return address stack size (0 for no return stack)
-bpred:btb       512 4 # BTB config (<num_sets> <associativity>)
# -bpred:spec_update       <null> # speculative predictors update in {ID|WB} (default non-spec)
-decode:width               4 # instruction decode B/W (insts/cycle)
-issue:width                4 # instruction issue B/W (insts/cycle)
-issue:inorder          false # run pipeline with in-order issue
-issue:wrongpath         true # issue instructions down wrong execution paths
-commit:width               4 # instruction commit B/W (insts/cycle)
-ruu:size                  16 # register update unit (RUU) size
-lsq:size                   8 # load/store queue (LSQ) size
-cache:dl1       dl1:32:64:8:f # l1 data cache config, i.e., {<config>|none}
-cache:dl1lat               1 # l1 data cache hit latency (in cycles)
-cache:dl2       dl2:256:64:8:f # l2 data cache config, i.e., {<config>|none}
-cache:dl2lat               2 # l2 data cache hit latency (in cycles)
-cache:il1       il1:32:64:8:f # l1 inst cache config, i.e., {<config>|dl1|dl2|none}
-cache:il1lat               1 # l1 instruction cache hit latency (in cycles)
-cache:il2                dl2 # l2 instruction cache config, i.e., {<config>|dl2|none}
-cache:il2lat               2 # l2 instruction cache hit latency (in cycles)
-cache:flush            false # flush caches on system calls
-cache:icompress        false # convert 64-bit inst addresses to 32-bit inst equivalents
-mem:lat         103 1 # memory access latency (<first_chunk> <inter_chunk>)
-mem:width                  8 # memory access bus width (in bytes)
-tlb:itlb        itlb:16:4096:4:l # instruction TLB config, i.e., {<config>|none}
-tlb:dtlb        dtlb:32:4096:4:l # data TLB config, i.e., {<config>|none}
-tlb:lat                   30 # inst/data TLB miss latency (in cycles)
-res:ialu                   4 # total number of integer ALU's available
-res:imult                  1 # total number of integer multiplier/dividers available
-res:memport                2 # total number of memory system ports available (to CPU)
-res:fpalu                  4 # total number of floating point ALU's available
-res:fpmult                 1 # total number of floating point multiplier/dividers available
# -pcstat              <null> # profile stat(s) against text addr's (mult uses ok)
-bugcompat              false # operate in backward-compatible bugs mode (for testing only)

  Pipetrace range arguments are formatted as follows:

    {{@|#}<start>}:{{@|#|+}<end>}

  Both ends of the range are optional, if neither are specified, the entire
  execution is traced.  Ranges that start with a `@' designate an address
  range to be traced, those that start with an `#' designate a cycle count
  range.  All other range values represent an instruction count range.  The
  second argument, if specified with a `+', indicates a value relative
  to the first argument, e.g., 1000:+100 == 1000:1100.  Program symbols may
  be used in all contexts.

    Examples:   -ptrace FOO.trc #0:#1000
                -ptrace BAR.trc @2000:
                -ptrace BLAH.trc :1500
                -ptrace UXXE.trc :
                -ptrace FOOBAR.trc @main:+278

  Branch predictor configuration examples for 2-level predictor:
    Configurations:   N, M, W, X
      N   # entries in first level (# of shift register(s))
      W   width of shift register(s)
      M   # entries in 2nd level (# of counters, or other FSM)
      X   (yes-1/no-0) xor history and address for 2nd level index
    Sample predictors:
      GAg     : 1, W, 2^W, 0
      GAp     : 1, W, M (M > 2^W), 0
      PAg     : N, W, 2^W, 0
      PAp     : N, W, M (M == 2^(N+W)), 0
      gshare  : 1, W, 2^W, 1
  Predictor `comb' combines a bimodal and a 2-level predictor.

  The cache config parameter <config> has the following format:

    <name>:<nsets>:<bsize>:<assoc>:<repl>

    <name>   - name of the cache being defined
    <nsets>  - number of sets in the cache
    <bsize>  - block size of the cache
    <assoc>  - associativity of the cache
    <repl>   - block replacement strategy, 'l'-LRU, 'f'-FIFO, 'r'-random

    Examples:   -cache:dl1 dl1:4096:32:1:l
                -dtlb dtlb:128:4096:32:r

  Cache levels can be unified by pointing a level of the instruction cache
  hierarchy at the data cache hiearchy using the "dl1" and "dl2" cache
  configuration arguments.  Most sensible combinations are supported, e.g.,

    A unified l2 cache (il2 is pointed at dl2):
      -cache:il1 il1:128:64:1:l -cache:il2 dl2
      -cache:dl1 dl1:256:32:1:l -cache:dl2 ul2:1024:64:2:l

    Or, a fully unified cache hierarchy (il1 pointed at dl1):
      -cache:il1 dl1
      -cache:dl1 ul1:256:32:1:l -cache:dl2 ul2:1024:64:2:l



sim: ** starting performance simulation **

sim: ** simulation statistics **
sim_num_insn               10000001 # total number of instructions committed
sim_num_refs                4771616 # total number of loads and stores committed
sim_num_loads               3323063 # total number of loads committed
sim_num_stores         1448553.0000 # total number of stores committed
sim_num_branches            1061383 # total number of branches committed
sim_elapsed_time                 10 # total simulation time in seconds
sim_inst_rate          1000000.1000 # simulation speed (in insts/sec)
sim_total_insn             10000001 # total number of instructions executed
sim_total_refs              4771616 # total number of loads and stores executed
sim_total_loads             3323063 # total number of loads executed
sim_total_stores       1448553.0000 # total number of stores executed
sim_total_branches          1061383 # total number of branches executed
sim_cycle                   5447553 # total simulation time in cycles
sim_IPC                      1.8357 # instructions per cycle
sim_CPI                      0.5448 # cycles per instruction
sim_exec_BW                  1.8357 # total instructions (mis-spec + committed) per cycle
sim_IPB                      9.4217 # instruction per branch
IFQ_count                  21725285 # cumulative IFQ occupancy
IFQ_fcount                  5430943 # cumulative IFQ full count
ifq_occupancy                3.9881 # avg IFQ occupancy (insn's)
ifq_rate                     1.8357 # avg IFQ dispatch rate (insn/cycle)
ifq_latency                  2.1725 # avg IFQ occupant latency (cycle's)
ifq_full                     0.9970 # fraction of time (cycle's) IFQ was full
RUU_count                  77092259 # cumulative RUU occupancy
RUU_fcount                  2098042 # cumulative RUU full count
ruu_occupancy               14.1517 # avg RUU occupancy (insn's)
ruu_rate                     1.8357 # avg RUU dispatch rate (insn/cycle)
ruu_latency                  7.7092 # avg RUU occupant latency (cycle's)
ruu_full                     0.3851 # fraction of time (cycle's) RUU was full
LSQ_count                  36828649 # cumulative LSQ occupancy
LSQ_fcount                  2164748 # cumulative LSQ full count
lsq_occupancy                6.7606 # avg LSQ occupancy (insn's)
lsq_rate                     1.8357 # avg LSQ dispatch rate (insn/cycle)
lsq_latency                  3.6829 # avg LSQ occupant latency (cycle's)
lsq_full                     0.3974 # fraction of time (cycle's) LSQ was full
sim_slip                  128692423 # total number of slip cycles
avg_sim_slip                12.8692 # the average slip between issue and retirement
il1.accesses               11040296 # total number of accesses
il1.hits                   11040145 # total number of hits
il1.misses                      151 # total number of misses
il1.replacements                  0 # total number of replacements
il1.writebacks                    0 # total number of writebacks
il1.invalidations                 0 # total number of invalidations
il1.miss_rate                0.0000 # miss rate (i.e., misses/ref)
il1.repl_rate                0.0000 # replacement rate (i.e., repls/ref)
il1.wb_rate                  0.0000 # writeback rate (i.e., wrbks/ref)
il1.inv_rate                 0.0000 # invalidation rate (i.e., invs/ref)
dl1.accesses                4762281 # total number of accesses
dl1.hits                    4730865 # total number of hits
dl1.misses                    31416 # total number of misses
dl1.replacements              31160 # total number of replacements
dl1.writebacks                12834 # total number of writebacks
dl1.invalidations                 0 # total number of invalidations
dl1.miss_rate                0.0066 # miss rate (i.e., misses/ref)
dl1.repl_rate                0.0065 # replacement rate (i.e., repls/ref)
dl1.wb_rate                  0.0027 # writeback rate (i.e., wrbks/ref)
dl1.inv_rate                 0.0000 # invalidation rate (i.e., invs/ref)
dl2.accesses                  44401 # total number of accesses
dl2.hits                      23162 # total number of hits
dl2.misses                    21239 # total number of misses
dl2.replacements              19191 # total number of replacements
dl2.writebacks                 8891 # total number of writebacks
dl2.invalidations                 0 # total number of invalidations
dl2.miss_rate                0.4783 # miss rate (i.e., misses/ref)
dl2.repl_rate                0.4322 # replacement rate (i.e., repls/ref)
dl2.wb_rate                  0.2002 # writeback rate (i.e., wrbks/ref)
dl2.inv_rate                 0.0000 # invalidation rate (i.e., invs/ref)
itlb.accesses              11040296 # total number of accesses
itlb.hits                  11040287 # total number of hits
itlb.misses                       9 # total number of misses
itlb.replacements                 0 # total number of replacements
itlb.writebacks                   0 # total number of writebacks
itlb.invalidations                0 # total number of invalidations
itlb.miss_rate               0.0000 # miss rate (i.e., misses/ref)
itlb.repl_rate               0.0000 # replacement rate (i.e., repls/ref)
itlb.wb_rate                 0.0000 # writeback rate (i.e., wrbks/ref)
itlb.inv_rate                0.0000 # invalidation rate (i.e., invs/ref)
dtlb.accesses               4771611 # total number of accesses
dtlb.hits                   4770509 # total number of hits
dtlb.misses                    1102 # total number of misses
dtlb.replacements               974 # total number of replacements
dtlb.writebacks                   0 # total number of writebacks
dtlb.invalidations                0 # total number of invalidations
dtlb.miss_rate               0.0002 # miss rate (i.e., misses/ref)
dtlb.repl_rate               0.0002 # replacement rate (i.e., repls/ref)
dtlb.wb_rate                 0.0000 # writeback rate (i.e., wrbks/ref)
dtlb.inv_rate                0.0000 # invalidation rate (i.e., invs/ref)
rename_power           2276889.1416 # total power usage of rename unit
bpred_power            15234233.4942 # total power usage of bpred unit
window_power           12008146.8629 # total power usage of instruction window
lsq_power              5246974.0304 # total power usage of load/store queue
regfile_power          19461231.1350 # total power usage of arch. regfile
icache_power           16520047.9594 # total power usage of icache
dcache_power           35075136.5214 # total power usage of dcache
dcache2_power          16903630.4259 # total power usage of dcache2
alu_power              103183056.8807 # total power usage of alu
falu_power             77796749.2344 # total power usage of falu
resultbus_power        12515986.6458 # total power usage of resultbus
clock_power            145037055.3191 # total power usage of clock
avg_rename_power             0.4180 # avg power usage of rename unit
avg_bpred_power              2.7965 # avg power usage of bpred unit
avg_window_power             2.2043 # avg power usage of instruction window
avg_lsq_power                0.9632 # avg power usage of lsq
avg_regfile_power            3.5725 # avg power usage of arch. regfile
avg_icache_power             3.0326 # avg power usage of icache
avg_dcache_power             6.4387 # avg power usage of dcache
avg_dcache2_power            3.1030 # avg power usage of dcache2
avg_alu_power               18.9412 # avg power usage of alu
avg_falu_power              14.2810 # avg power usage of falu
avg_resultbus_power          2.2975 # avg power usage of resultbus
avg_clock_power             26.6243 # avg power usage of clock
fetch_stage_power      31754281.4536 # total power usage of fetch stage
dispatch_stage_power   2276889.1416 # total power usage of dispatch stage
issue_stage_power      184932931.3672 # total power usage of issue stage
avg_fetch_power              5.8291 # average power of fetch unit per cycle
avg_dispatch_power           0.4180 # average power of dispatch unit per cycle
avg_issue_power             33.9479 # average power of issue unit per cycle
total_power            383462388.4165 # total power per cycle
avg_total_power_cycle       70.3917 # average total power per cycle
avg_total_power_cycle_nofp_nod2      53.0077 # average total power per cycle
avg_total_power_insn        38.3462 # average total power per insn
avg_total_power_insn_nofp_nod2      28.8762 # average total power per insn
rename_power_cc1       1463435.5159 # total power usage of rename unit_cc1
bpred_power_cc1              0.0000 # total power usage of bpred unit_cc1
window_power_cc1       9424229.2297 # total power usage of instruction window_cc1
lsq_power_cc1          1826768.2930 # total power usage of lsq_cc1
regfile_power_cc1      12356207.9524 # total power usage of arch. regfile_cc1
icache_power_cc1       10618340.6110 # total power usage of icache_cc1
dcache_power_cc1       19437611.2909 # total power usage of dcache_cc1
dcache2_power_cc1        97259.7039 # total power usage of dcache2_cc1
alu_power_cc1          18078976.1044 # total power usage of alu_cc1
resultbus_power_cc1    8560764.3408 # total power usage of resultbus_cc1
clock_power_cc1        52515933.0308 # total power usage of clock_cc1
avg_rename_power_cc1         0.2686 # avg power usage of rename unit_cc1
avg_bpred_power_cc1          0.0000 # avg power usage of bpred unit_cc1
avg_window_power_cc1         1.7300 # avg power usage of instruction window_cc1
avg_lsq_power_cc1            0.3353 # avg power usage of lsq_cc1
avg_regfile_power_cc1        2.2682 # avg power usage of arch. regfile_cc1
avg_icache_power_cc1         1.9492 # avg power usage of icache_cc1
avg_dcache_power_cc1         3.5681 # avg power usage of dcache_cc1
avg_dcache2_power_cc1        0.0179 # avg power usage of dcache2_cc1
avg_alu_power_cc1            3.3187 # avg power usage of alu_cc1
avg_resultbus_power_cc1       1.5715 # avg power usage of resultbus_cc1
avg_clock_power_cc1          9.6403 # avg power usage of clock_cc1
fetch_stage_power_cc1  10618340.6110 # total power usage of fetch stage_cc1
dispatch_stage_power_cc1 1463435.5159 # total power usage of dispatch stage_cc1
issue_stage_power_cc1  57425608.9628 # total power usage of issue stage_cc1
avg_fetch_power_cc1          1.9492 # average power of fetch unit per cycle_cc1
avg_dispatch_power_cc1       0.2686 # average power of dispatch unit per cycle_cc1
avg_issue_power_cc1         10.5415 # average power of issue unit per cycle_cc1
total_power_cycle_cc1  134379526.0729 # total power per cycle_cc1
avg_total_power_cycle_cc1      24.6679 # average total power per cycle_cc1
avg_total_power_insn_cc1      13.4380 # average total power per insn_cc1
rename_power_cc2       1044913.8215 # total power usage of rename unit_cc2
bpred_power_cc2              0.0000 # total power usage of bpred unit_cc2
window_power_cc2       8899647.8494 # total power usage of instruction window_cc2
lsq_power_cc2          1214745.9532 # total power usage of lsq_cc2
regfile_power_cc2      4082932.8561 # total power usage of arch. regfile_cc2
icache_power_cc2       10618340.6110 # total power usage of icache_cc2
dcache_power_cc2       15331439.2941 # total power usage of dcache_cc2
dcache2_power_cc2        68887.6358 # total power usage of dcache2_cc2
alu_power_cc2          11647922.6779 # total power usage of alu_cc2
resultbus_power_cc2    6602744.6237 # total power usage of resultbus_cc2
clock_power_cc2        38168698.0263 # total power usage of clock_cc2
avg_rename_power_cc2         0.1918 # avg power usage of rename unit_cc2
avg_bpred_power_cc2          0.0000 # avg power usage of bpred unit_cc2
avg_window_power_cc2         1.6337 # avg power usage of instruction window_cc2
avg_lsq_power_cc2            0.2230 # avg power usage of instruction lsq_cc2
avg_regfile_power_cc2        0.7495 # avg power usage of arch. regfile_cc2
avg_icache_power_cc2         1.9492 # avg power usage of icache_cc2
avg_dcache_power_cc2         2.8144 # avg power usage of dcache_cc2
avg_dcache2_power_cc2        0.0126 # avg power usage of dcache2_cc2
avg_alu_power_cc2            2.1382 # avg power usage of alu_cc2
avg_resultbus_power_cc2       1.2121 # avg power usage of resultbus_cc2
avg_clock_power_cc2          7.0066 # avg power usage of clock_cc2
fetch_stage_power_cc2  10618340.6110 # total power usage of fetch stage_cc2
dispatch_stage_power_cc2 1044913.8215 # total power usage of dispatch stage_cc2
issue_stage_power_cc2  43765388.0341 # total power usage of issue stage_cc2
avg_fetch_power_cc2          1.9492 # average power of fetch unit per cycle_cc2
avg_dispatch_power_cc2       0.1918 # average power of dispatch unit per cycle_cc2
avg_issue_power_cc2          8.0340 # average power of issue unit per cycle_cc2
total_power_cycle_cc2  97680273.3491 # total power per cycle_cc2
avg_total_power_cycle_cc2      17.9310 # average total power per cycle_cc2
avg_total_power_insn_cc2       9.7680 # average total power per insn_cc2
rename_power_cc3       1126259.1840 # total power usage of rename unit_cc3
bpred_power_cc3        1523423.3495 # total power usage of bpred unit_cc3
window_power_cc3       9210052.6063 # total power usage of instruction window_cc3
lsq_power_cc3          1556952.1819 # total power usage of lsq_cc3
regfile_power_cc3      4667779.4064 # total power usage of arch. regfile_cc3
icache_power_cc3       11208511.3454 # total power usage of icache_cc3
dcache_power_cc3       17013148.7249 # total power usage of dcache_cc3
dcache2_power_cc3      1749575.5968 # total power usage of dcache2_cc3
alu_power_cc3          20158330.7541 # total power usage of alu_cc3
resultbus_power_cc3    6941352.8183 # total power usage of resultbus_cc3
clock_power_cc3        47412600.3615 # total power usage of clock_cc3
avg_rename_power_cc3         0.2067 # avg power usage of rename unit_cc3
avg_bpred_power_cc3          0.2797 # avg power usage of bpred unit_cc3
avg_window_power_cc3         1.6907 # avg power usage of instruction window_cc3
avg_lsq_power_cc3            0.2858 # avg power usage of instruction lsq_cc3
avg_regfile_power_cc3        0.8569 # avg power usage of arch. regfile_cc3
avg_icache_power_cc3         2.0575 # avg power usage of icache_cc3
avg_dcache_power_cc3         3.1231 # avg power usage of dcache_cc3
avg_dcache2_power_cc3        0.3212 # avg power usage of dcache2_cc3
avg_alu_power_cc3            3.7004 # avg power usage of alu_cc3
avg_resultbus_power_cc3       1.2742 # avg power usage of resultbus_cc3
avg_clock_power_cc3          8.7035 # avg power usage of clock_cc3
fetch_stage_power_cc3  12731934.6949 # total power usage of fetch stage_cc3
dispatch_stage_power_cc3 1126259.1840 # total power usage of dispatch stage_cc3
issue_stage_power_cc3  56629412.6823 # total power usage of issue stage_cc3
avg_fetch_power_cc3          2.3372 # average power of fetch unit per cycle_cc3
avg_dispatch_power_cc3       0.2067 # average power of dispatch unit per cycle_cc3
avg_issue_power_cc3         10.3954 # average power of issue unit per cycle_cc3
total_power_cycle_cc3  122567986.3291 # total power per cycle_cc3
avg_total_power_cycle_cc3      22.4996 # average total power per cycle_cc3
avg_total_power_insn_cc3      12.2568 # average total power per insn_cc3
total_rename_access        10000001 # total number accesses of rename unit
total_bpred_access                0 # total number accesses of bpred unit
total_window_access        40735329 # total number accesses of instruction window
total_lsq_access            4780942 # total number accesses of load/store queue
total_regfile_access       15245871 # total number accesses of arch. regfile
total_icache_access        11040296 # total number accesses of icache
total_dcache_access         4762281 # total number accesses of dcache
total_dcache2_access          44401 # total number accesses of dcache2
total_alu_access            9997937 # total number accesses of alu
total_resultbus_access     12261669 # total number accesses of resultbus
avg_rename_access            1.8357 # avg number accesses of rename unit
avg_bpred_access             0.0000 # avg number accesses of bpred unit
avg_window_access            7.4777 # avg number accesses of instruction window
avg_lsq_access               0.8776 # avg number accesses of lsq
avg_regfile_access           2.7987 # avg number accesses of arch. regfile
avg_icache_access            2.0267 # avg number accesses of icache
avg_dcache_access            0.8742 # avg number accesses of dcache
avg_dcache2_access           0.0082 # avg number accesses of dcache2
avg_alu_access               1.8353 # avg number accesses of alu
avg_resultbus_access         2.2509 # avg number accesses of resultbus
max_rename_access                 4 # max number accesses of rename unit
max_bpred_access                  0 # max number accesses of bpred unit
max_window_access                18 # max number accesses of instruction window
max_lsq_access                    5 # max number accesses of load/store queue
max_regfile_access               12 # max number accesses of arch. regfile
max_icache_access                 4 # max number accesses of icache
max_dcache_access                 4 # max number accesses of dcache
max_dcache2_access                4 # max number accesses of dcache2
max_alu_access                    4 # max number accesses of alu
max_resultbus_access              8 # max number accesses of resultbus
max_cycle_power_cc1         39.7542 # maximum cycle power usage of cc1
max_cycle_power_cc2         32.3101 # maximum cycle power usage of cc2
max_cycle_power_cc3         35.7482 # maximum cycle power usage of cc3
sim_invalid_addrs                 0 # total non-speculative bogus addresses seen (debug var)
ld_text_base           0x0120000000 # program text (code) segment base
ld_text_size                1990656 # program text (code) size in bytes
ld_data_base           0x0140000000 # program initialized data segment base
ld_data_size                 306320 # program init'ed `.data' and uninit'ed `.bss' size in bytes
ld_stack_base          0x011ff9b000 # program stack segment base (highest address in stack)
ld_stack_size                 16384 # program initial stack size
ld_prog_entry          0x012012858c # program entry point (initial PC)
ld_environ_base        0x011ff83680 # program environment base address address
ld_target_big_endian              0 # target executable endian-ness, non-zero if big endian
mem.page_count                  804 # total number of pages allocated
mem.page_mem                  6432k # total size of memory pages allocated
mem.ptab_misses                1471 # total first level page table misses
mem.ptab_accesses          80863184 # total page table accesses
mem.ptab_miss_rate           0.0000 # first level page table miss rate

