sim-outorder: SimpleScalar/Alpha Tool Set version 3.0 of August, 2003.
Copyright (c) 1994-2003 by Todd M. Austin, Ph.D. and SimpleScalar, LLC.
All Rights Reserved. This version of SimpleScalar is licensed for academic
non-commercial use.  No portion of this work may be used by any commercial
entity, or for any commercial purpose, without the prior written permission
of SimpleScalar, LLC (info@simplescalar.com).


Processor Parameters:
Issue Width: 4
Window Size: 16
Number of Virtual Registers: 32
Number of Physical Registers: 16
Datapath Width: 64
Total Power Consumption: 72.3917
Branch Predictor Power Consumption: 2.79653  (3.97%)
 branch target buffer power (W): 2.49493
 local predict power (W): 0.0348099
 global predict power (W): 0.0996078
 chooser power (W): 0.0702439
 RAS power (W): 0.0969383
Rename Logic Power Consumption: 0.417965  (0.594%)
 Instruction Decode Power (W): 0.0159915
 RAT decode_power (W): 0.113514
 RAT wordline_power (W): 0.0307815
 RAT bitline_power (W): 0.246771
 DCL Comparators (W): 0.0109075
Instruction Window Power Consumption: 2.20432  (3.13%)
 tagdrive (W): 0.0943488
 tagmatch (W): 0.033695
 Selection Logic (W): 0.0134217
 decode_power (W): 0.0532503
 wordline_power (W): 0.0844643
 bitline_power (W): 1.92514
Load/Store Queue Power Consumption: 0.96318  (1.37%)
 tagdrive (W): 0.457232
 tagmatch (W): 0.100774
 decode_power (W): 0.00799577
 wordline_power (W): 0.0150119
 bitline_power (W): 0.382166
Arch. Register File Power Consumption: 3.57247  (5.08%)
 decode_power (W): 0.113514
 wordline_power (W): 0.0844643
 bitline_power (W): 3.37449
Result Bus Power Consumption: 2.29754  (3.26%)
Total Clock Power: 26.6243  (37.8%)
Int ALU Power: 4.66013  (6.62%)
FP ALU Power: 14.281  (20.3%)
Instruction Cache Power Consumption: 2.76773  (3.93%)
 decode_power (W): 0.151353
 wordline_power (W): 0.180479
 bitline_power (W): 1.42251
 senseamp_power (W): 0.768
 tagarray_power (W): 0.245382
Itlb_power (W): 0.264834 (0.376%)
Data Cache Power Consumption: 5.53546  (7.86%)
 decode_power (W): 0.302705
 wordline_power (W): 0.360958
 bitline_power (W): 2.84503
 senseamp_power (W): 1.536
 tagarray_power (W): 0.490764
Dtlb_power (W): 0.903238 (1.28%)
Level 2 Cache Power Consumption: 3.10298 (4.41%)
 decode_power (W): 0.19487
 wordline_power (W): 0.0430878
 bitline_power (W): 1.77274
 senseamp_power (W): 0.192
 tagarray_power (W): 0.900275
sim: loading EIO file: ../benchmarks/183.equake.spec_ref.eio.gz
sim: command line: ./sim-outorder -config ../configs/current.config ../benchmarks/183.equake.spec_ref.eio.gz 

sim: simulation started @ Mon Nov 23 19:16:00 2015, options follow:

sim-outorder: This simulator implements a very detailed out-of-order issue
superscalar processor with a two-level memory system and speculative
execution support.  This simulator is a performance simulator, tracking the
latency of all pipeline operations.

# -config                     # load configuration from a file
# -dumpconfig                 # dump configuration to a file
# -h                    false # print help message    
# -v                    false # verbose operation     
# -d                    false # enable debug message  
# -i                    false # start in Dlite debugger
-seed                       1 # random number generator seed (0 for timer seed)
# -q                    false # initialize and terminate immediately
# -chkpt               <null> # restore EIO trace execution from <fname>
# -redir:sim     ../results/10_00_baseline/183.equake.spec_ref.eio.gz.out # redirect simulator output to file (non-interactive only)
# -redir:prog       /dev/null # redirect simulated program output to file
-nice                       0 # simulator scheduling priority
-freq            600000000.0000 # frequency             
-max:inst            10000000 # maximum number of inst's to execute
-fastfwd                    0 # number of insts skipped before timing starts
# -ptrace              <null> # generate pipetrace, i.e., <fname|stdout|stderr> <range>
-fetch:ifqsize              4 # instruction fetch queue size (in insts)
-fetch:mplat                3 # extra branch mis-prediction latency
-fetch:speed                1 # speed of front-end of machine relative to execution core
-bpred                perfect # branch predictor type {nottaken|taken|perfect|bimod|2lev|comb}
-bpred:bimod     2048 # bimodal predictor config (<table size>)
-bpred:2lev      1 256 2 0 # 2-level predictor config (<l1size> <l2size> <hist_size> <xor>)
-bpred:comb      1024 # combining predictor config (<meta_table_size>)
-bpred:ras                  8 # return address stack size (0 for no return stack)
-bpred:btb       512 4 # BTB config (<num_sets> <associativity>)
# -bpred:spec_update       <null> # speculative predictors update in {ID|WB} (default non-spec)
-decode:width               4 # instruction decode B/W (insts/cycle)
-issue:width                4 # instruction issue B/W (insts/cycle)
-issue:inorder          false # run pipeline with in-order issue
-issue:wrongpath         true # issue instructions down wrong execution paths
-commit:width               4 # instruction commit B/W (insts/cycle)
-ruu:size                  16 # register update unit (RUU) size
-lsq:size                   8 # load/store queue (LSQ) size
-cache:dl1       dl1:32:64:8:f # l1 data cache config, i.e., {<config>|none}
-cache:dl1lat               1 # l1 data cache hit latency (in cycles)
-cache:dl2       dl2:256:64:8:f # l2 data cache config, i.e., {<config>|none}
-cache:dl2lat               2 # l2 data cache hit latency (in cycles)
-cache:il1       il1:32:64:8:f # l1 inst cache config, i.e., {<config>|dl1|dl2|none}
-cache:il1lat               1 # l1 instruction cache hit latency (in cycles)
-cache:il2                dl2 # l2 instruction cache config, i.e., {<config>|dl2|none}
-cache:il2lat               2 # l2 instruction cache hit latency (in cycles)
-cache:flush            false # flush caches on system calls
-cache:icompress        false # convert 64-bit inst addresses to 32-bit inst equivalents
-mem:lat         103 1 # memory access latency (<first_chunk> <inter_chunk>)
-mem:width                  8 # memory access bus width (in bytes)
-tlb:itlb        itlb:16:4096:4:l # instruction TLB config, i.e., {<config>|none}
-tlb:dtlb        dtlb:32:4096:4:l # data TLB config, i.e., {<config>|none}
-tlb:lat                   30 # inst/data TLB miss latency (in cycles)
-res:ialu                   4 # total number of integer ALU's available
-res:imult                  1 # total number of integer multiplier/dividers available
-res:memport                2 # total number of memory system ports available (to CPU)
-res:fpalu                  4 # total number of floating point ALU's available
-res:fpmult                 1 # total number of floating point multiplier/dividers available
# -pcstat              <null> # profile stat(s) against text addr's (mult uses ok)
-bugcompat              false # operate in backward-compatible bugs mode (for testing only)

  Pipetrace range arguments are formatted as follows:

    {{@|#}<start>}:{{@|#|+}<end>}

  Both ends of the range are optional, if neither are specified, the entire
  execution is traced.  Ranges that start with a `@' designate an address
  range to be traced, those that start with an `#' designate a cycle count
  range.  All other range values represent an instruction count range.  The
  second argument, if specified with a `+', indicates a value relative
  to the first argument, e.g., 1000:+100 == 1000:1100.  Program symbols may
  be used in all contexts.

    Examples:   -ptrace FOO.trc #0:#1000
                -ptrace BAR.trc @2000:
                -ptrace BLAH.trc :1500
                -ptrace UXXE.trc :
                -ptrace FOOBAR.trc @main:+278

  Branch predictor configuration examples for 2-level predictor:
    Configurations:   N, M, W, X
      N   # entries in first level (# of shift register(s))
      W   width of shift register(s)
      M   # entries in 2nd level (# of counters, or other FSM)
      X   (yes-1/no-0) xor history and address for 2nd level index
    Sample predictors:
      GAg     : 1, W, 2^W, 0
      GAp     : 1, W, M (M > 2^W), 0
      PAg     : N, W, 2^W, 0
      PAp     : N, W, M (M == 2^(N+W)), 0
      gshare  : 1, W, 2^W, 1
  Predictor `comb' combines a bimodal and a 2-level predictor.

  The cache config parameter <config> has the following format:

    <name>:<nsets>:<bsize>:<assoc>:<repl>

    <name>   - name of the cache being defined
    <nsets>  - number of sets in the cache
    <bsize>  - block size of the cache
    <assoc>  - associativity of the cache
    <repl>   - block replacement strategy, 'l'-LRU, 'f'-FIFO, 'r'-random

    Examples:   -cache:dl1 dl1:4096:32:1:l
                -dtlb dtlb:128:4096:32:r

  Cache levels can be unified by pointing a level of the instruction cache
  hierarchy at the data cache hiearchy using the "dl1" and "dl2" cache
  configuration arguments.  Most sensible combinations are supported, e.g.,

    A unified l2 cache (il2 is pointed at dl2):
      -cache:il1 il1:128:64:1:l -cache:il2 dl2
      -cache:dl1 dl1:256:32:1:l -cache:dl2 ul2:1024:64:2:l

    Or, a fully unified cache hierarchy (il1 pointed at dl1):
      -cache:il1 dl1
      -cache:dl1 ul1:256:32:1:l -cache:dl2 ul2:1024:64:2:l



sim: ** starting performance simulation **

sim: ** simulation statistics **
sim_num_insn               10000000 # total number of instructions committed
sim_num_refs                4804510 # total number of loads and stores committed
sim_num_loads               4428477 # total number of loads committed
sim_num_stores          376033.0000 # total number of stores committed
sim_num_branches             140291 # total number of branches committed
sim_elapsed_time                 20 # total simulation time in seconds
sim_inst_rate           500000.0000 # simulation speed (in insts/sec)
sim_total_insn             10000000 # total number of instructions executed
sim_total_refs              4804510 # total number of loads and stores executed
sim_total_loads             4428477 # total number of loads executed
sim_total_stores        376033.0000 # total number of stores executed
sim_total_branches           140291 # total number of branches executed
sim_cycle                  33715771 # total simulation time in cycles
sim_IPC                      0.2966 # instructions per cycle
sim_CPI                      3.3716 # cycles per instruction
sim_exec_BW                  0.2966 # total instructions (mis-spec + committed) per cycle
sim_IPB                     71.2804 # instruction per branch
IFQ_count                 134858693 # cumulative IFQ occupancy
IFQ_fcount                 33714671 # cumulative IFQ full count
ifq_occupancy                3.9999 # avg IFQ occupancy (insn's)
ifq_rate                     0.2966 # avg IFQ dispatch rate (insn/cycle)
ifq_latency                 13.4859 # avg IFQ occupant latency (cycle's)
ifq_full                     1.0000 # fraction of time (cycle's) IFQ was full
RUU_count                 434354579 # cumulative RUU occupancy
RUU_fcount                 14784314 # cumulative RUU full count
ruu_occupancy               12.8828 # avg RUU occupancy (insn's)
ruu_rate                     0.2966 # avg RUU dispatch rate (insn/cycle)
ruu_latency                 43.4355 # avg RUU occupant latency (cycle's)
ruu_full                     0.4385 # fraction of time (cycle's) RUU was full
LSQ_count                 251037654 # cumulative LSQ occupancy
LSQ_fcount                 18645579 # cumulative LSQ full count
lsq_occupancy                7.4457 # avg LSQ occupancy (insn's)
lsq_rate                     0.2966 # avg LSQ dispatch rate (insn/cycle)
lsq_latency                 25.1038 # avg LSQ occupant latency (cycle's)
lsq_full                     0.5530 # fraction of time (cycle's) LSQ was full
sim_slip                  700196609 # total number of slip cycles
avg_sim_slip                70.0197 # the average slip between issue and retirement
il1.accesses               10014973 # total number of accesses
il1.hits                   10014963 # total number of hits
il1.misses                       10 # total number of misses
il1.replacements                  0 # total number of replacements
il1.writebacks                    0 # total number of writebacks
il1.invalidations                 0 # total number of invalidations
il1.miss_rate                0.0000 # miss rate (i.e., misses/ref)
il1.repl_rate                0.0000 # replacement rate (i.e., repls/ref)
il1.wb_rate                  0.0000 # writeback rate (i.e., wrbks/ref)
il1.inv_rate                 0.0000 # invalidation rate (i.e., invs/ref)
dl1.accesses                4804507 # total number of accesses
dl1.hits                    4421597 # total number of hits
dl1.misses                   382910 # total number of misses
dl1.replacements             382654 # total number of replacements
dl1.writebacks                34299 # total number of writebacks
dl1.invalidations                 0 # total number of invalidations
dl1.miss_rate                0.0797 # miss rate (i.e., misses/ref)
dl1.repl_rate                0.0796 # replacement rate (i.e., repls/ref)
dl1.wb_rate                  0.0071 # writeback rate (i.e., wrbks/ref)
dl1.inv_rate                 0.0000 # invalidation rate (i.e., invs/ref)
dl2.accesses                 417219 # total number of accesses
dl2.hits                      88889 # total number of hits
dl2.misses                   328330 # total number of misses
dl2.replacements             326282 # total number of replacements
dl2.writebacks                19119 # total number of writebacks
dl2.invalidations                 0 # total number of invalidations
dl2.miss_rate                0.7869 # miss rate (i.e., misses/ref)
dl2.repl_rate                0.7820 # replacement rate (i.e., repls/ref)
dl2.wb_rate                  0.0458 # writeback rate (i.e., wrbks/ref)
dl2.inv_rate                 0.0000 # invalidation rate (i.e., invs/ref)
itlb.accesses              10014973 # total number of accesses
itlb.hits                  10014972 # total number of hits
itlb.misses                       1 # total number of misses
itlb.replacements                 0 # total number of replacements
itlb.writebacks                   0 # total number of writebacks
itlb.invalidations                0 # total number of invalidations
itlb.miss_rate               0.0000 # miss rate (i.e., misses/ref)
itlb.repl_rate               0.0000 # replacement rate (i.e., repls/ref)
itlb.wb_rate                 0.0000 # writeback rate (i.e., wrbks/ref)
itlb.inv_rate                0.0000 # invalidation rate (i.e., invs/ref)
dtlb.accesses               4804507 # total number of accesses
dtlb.hits                   4798748 # total number of hits
dtlb.misses                    5759 # total number of misses
dtlb.replacements              5631 # total number of replacements
dtlb.writebacks                   0 # total number of writebacks
dtlb.invalidations                0 # total number of invalidations
dtlb.miss_rate               0.0012 # miss rate (i.e., misses/ref)
dtlb.repl_rate               0.0012 # replacement rate (i.e., repls/ref)
dtlb.wb_rate                 0.0000 # writeback rate (i.e., wrbks/ref)
dtlb.inv_rate                0.0000 # invalidation rate (i.e., invs/ref)
rename_power           14092028.6346 # total power usage of rename unit
bpred_power            94287091.4911 # total power usage of bpred unit
window_power           74320328.7018 # total power usage of instruction window
lsq_power              32474355.8770 # total power usage of load/store queue
regfile_power          120448651.4657 # total power usage of arch. regfile
icache_power           102245201.5287 # total power usage of icache
dcache_power           217085592.6661 # total power usage of dcache
dcache2_power          104619254.2069 # total power usage of dcache2
alu_power              638616332.6186 # total power usage of alu
falu_power             481496441.3733 # total power usage of falu
resultbus_power        77463429.8125 # total power usage of resultbus
clock_power            897657378.8433 # total power usage of clock
avg_rename_power             0.4180 # avg power usage of rename unit
avg_bpred_power              2.7965 # avg power usage of bpred unit
avg_window_power             2.2043 # avg power usage of instruction window
avg_lsq_power                0.9632 # avg power usage of lsq
avg_regfile_power            3.5725 # avg power usage of arch. regfile
avg_icache_power             3.0326 # avg power usage of icache
avg_dcache_power             6.4387 # avg power usage of dcache
avg_dcache2_power            3.1030 # avg power usage of dcache2
avg_alu_power               18.9412 # avg power usage of alu
avg_falu_power              14.2810 # avg power usage of falu
avg_resultbus_power          2.2975 # avg power usage of resultbus
avg_clock_power             26.6243 # avg power usage of clock
fetch_stage_power      196532293.0198 # total power usage of fetch stage
dispatch_stage_power   14092028.6346 # total power usage of dispatch stage
issue_stage_power      1144579293.8828 # total power usage of issue stage
avg_fetch_power              5.8291 # average power of fetch unit per cycle
avg_dispatch_power           0.4180 # average power of dispatch unit per cycle
avg_issue_power             33.9479 # average power of issue unit per cycle
total_power            2373309645.8462 # total power per cycle
avg_total_power_cycle       70.3917 # average total power per cycle
avg_total_power_cycle_nofp_nod2      53.0077 # average total power per cycle
avg_total_power_insn       237.3310 # average total power per insn
avg_total_power_insn_nofp_nod2     178.7194 # average total power per insn
rename_power_cc1       1456208.4747 # total power usage of rename unit_cc1
bpred_power_cc1              0.0000 # total power usage of bpred unit_cc1
window_power_cc1       13265533.7216 # total power usage of instruction window_cc1
lsq_power_cc1          1861580.0374 # total power usage of lsq_cc1
regfile_power_cc1      13391994.8930 # total power usage of arch. regfile_cc1
icache_power_cc1       10565592.2093 # total power usage of icache_cc1
dcache_power_cc1       21398493.5556 # total power usage of dcache_cc1
dcache2_power_cc1      1092406.0756 # total power usage of dcache2_cc1
alu_power_cc1          59968756.6343 # total power usage of alu_cc1
resultbus_power_cc1    11998041.2516 # total power usage of resultbus_cc1
clock_power_cc1        87791302.8899 # total power usage of clock_cc1
avg_rename_power_cc1         0.0432 # avg power usage of rename unit_cc1
avg_bpred_power_cc1          0.0000 # avg power usage of bpred unit_cc1
avg_window_power_cc1         0.3935 # avg power usage of instruction window_cc1
avg_lsq_power_cc1            0.0552 # avg power usage of lsq_cc1
avg_regfile_power_cc1        0.3972 # avg power usage of arch. regfile_cc1
avg_icache_power_cc1         0.3134 # avg power usage of icache_cc1
avg_dcache_power_cc1         0.6347 # avg power usage of dcache_cc1
avg_dcache2_power_cc1        0.0324 # avg power usage of dcache2_cc1
avg_alu_power_cc1            1.7787 # avg power usage of alu_cc1
avg_resultbus_power_cc1       0.3559 # avg power usage of resultbus_cc1
avg_clock_power_cc1          2.6039 # avg power usage of clock_cc1
fetch_stage_power_cc1  10565592.2093 # total power usage of fetch stage_cc1
dispatch_stage_power_cc1 1456208.4747 # total power usage of dispatch stage_cc1
issue_stage_power_cc1  109584811.2762 # total power usage of issue stage_cc1
avg_fetch_power_cc1          0.3134 # average power of fetch unit per cycle_cc1
avg_dispatch_power_cc1       0.0432 # average power of dispatch unit per cycle_cc1
avg_issue_power_cc1          3.2503 # average power of issue unit per cycle_cc1
total_power_cycle_cc1  222789909.7430 # total power per cycle_cc1
avg_total_power_cycle_cc1       6.6079 # average total power per cycle_cc1
avg_total_power_insn_cc1      22.2790 # average total power per insn_cc1
rename_power_cc2       1044913.7170 # total power usage of rename unit_cc2
bpred_power_cc2              0.0000 # total power usage of bpred unit_cc2
window_power_cc2       9538189.6559 # total power usage of instruction window_cc2
lsq_power_cc2          1309823.1330 # total power usage of lsq_cc2
regfile_power_cc2      5217074.6753 # total power usage of arch. regfile_cc2
icache_power_cc2       10565592.2093 # total power usage of icache_cc2
dcache_power_cc2       15467379.4781 # total power usage of dcache_cc2
dcache2_power_cc2       647310.4329 # total power usage of dcache2_cc2
alu_power_cc2          21856544.6339 # total power usage of alu_cc2
resultbus_power_cc2    7693992.0553 # total power usage of resultbus_cc2
clock_power_cc2        47646074.1045 # total power usage of clock_cc2
avg_rename_power_cc2         0.0310 # avg power usage of rename unit_cc2
avg_bpred_power_cc2          0.0000 # avg power usage of bpred unit_cc2
avg_window_power_cc2         0.2829 # avg power usage of instruction window_cc2
avg_lsq_power_cc2            0.0388 # avg power usage of instruction lsq_cc2
avg_regfile_power_cc2        0.1547 # avg power usage of arch. regfile_cc2
avg_icache_power_cc2         0.3134 # avg power usage of icache_cc2
avg_dcache_power_cc2         0.4588 # avg power usage of dcache_cc2
avg_dcache2_power_cc2        0.0192 # avg power usage of dcache2_cc2
avg_alu_power_cc2            0.6483 # avg power usage of alu_cc2
avg_resultbus_power_cc2       0.2282 # avg power usage of resultbus_cc2
avg_clock_power_cc2          1.4132 # avg power usage of clock_cc2
fetch_stage_power_cc2  10565592.2093 # total power usage of fetch stage_cc2
dispatch_stage_power_cc2 1044913.7170 # total power usage of dispatch stage_cc2
issue_stage_power_cc2  56513239.3892 # total power usage of issue stage_cc2
avg_fetch_power_cc2          0.3134 # average power of fetch unit per cycle_cc2
avg_dispatch_power_cc2       0.0310 # average power of dispatch unit per cycle_cc2
avg_issue_power_cc2          1.6762 # average power of issue unit per cycle_cc2
total_power_cycle_cc2  120986894.0952 # total power per cycle_cc2
avg_total_power_cycle_cc2       3.5884 # average total power per cycle_cc2
avg_total_power_insn_cc2      12.0987 # average total power per insn_cc2
rename_power_cc3       2308495.7344 # total power usage of rename unit_cc3
bpred_power_cc3        9428709.1488 # total power usage of bpred unit_cc3
window_power_cc3       15587180.6008 # total power usage of instruction window_cc3
lsq_power_cc3          4370753.5222 # total power usage of lsq_cc3
regfile_power_cc3      15766606.9555 # total power usage of arch. regfile_cc3
icache_power_cc3       19733553.1318 # total power usage of icache_cc3
dcache_power_cc3       35049704.9759 # total power usage of dcache_cc3
dcache2_power_cc3      11000901.3238 # total power usage of dcache2_cc3
alu_power_cc3          79721302.1994 # total power usage of alu_cc3
resultbus_power_cc3    14199638.2261 # total power usage of resultbus_cc3
clock_power_cc3        128474661.4933 # total power usage of clock_cc3
avg_rename_power_cc3         0.0685 # avg power usage of rename unit_cc3
avg_bpred_power_cc3          0.2797 # avg power usage of bpred unit_cc3
avg_window_power_cc3         0.4623 # avg power usage of instruction window_cc3
avg_lsq_power_cc3            0.1296 # avg power usage of instruction lsq_cc3
avg_regfile_power_cc3        0.4676 # avg power usage of arch. regfile_cc3
avg_icache_power_cc3         0.5853 # avg power usage of icache_cc3
avg_dcache_power_cc3         1.0396 # avg power usage of dcache_cc3
avg_dcache2_power_cc3        0.3263 # avg power usage of dcache2_cc3
avg_alu_power_cc3            2.3645 # avg power usage of alu_cc3
avg_resultbus_power_cc3       0.4212 # avg power usage of resultbus_cc3
avg_clock_power_cc3          3.8105 # avg power usage of clock_cc3
fetch_stage_power_cc3  29162262.2807 # total power usage of fetch stage_cc3
dispatch_stage_power_cc3 2308495.7344 # total power usage of dispatch stage_cc3
issue_stage_power_cc3  159929480.8482 # total power usage of issue stage_cc3
avg_fetch_power_cc3          0.8649 # average power of fetch unit per cycle_cc3
avg_dispatch_power_cc3       0.0685 # average power of dispatch unit per cycle_cc3
avg_issue_power_cc3          4.7435 # average power of issue unit per cycle_cc3
total_power_cycle_cc3  335641507.3121 # total power per cycle_cc3
avg_total_power_cycle_cc3       9.9550 # average total power per cycle_cc3
avg_total_power_insn_cc3      33.5642 # average total power per insn_cc3
total_rename_access        10000000 # total number accesses of rename unit
total_bpred_access                0 # total number accesses of bpred unit
total_window_access        43742286 # total number accesses of instruction window
total_lsq_access            4804508 # total number accesses of load/store queue
total_regfile_access       19585263 # total number accesses of arch. regfile
total_icache_access        10014973 # total number accesses of icache
total_dcache_access         4804507 # total number accesses of dcache
total_dcache2_access         417219 # total number accesses of dcache2
total_alu_access            9999999 # total number accesses of alu
total_resultbus_access     14288177 # total number accesses of resultbus
avg_rename_access            0.2966 # avg number accesses of rename unit
avg_bpred_access             0.0000 # avg number accesses of bpred unit
avg_window_access            1.2974 # avg number accesses of instruction window
avg_lsq_access               0.1425 # avg number accesses of lsq
avg_regfile_access           0.5809 # avg number accesses of arch. regfile
avg_icache_access            0.2970 # avg number accesses of icache
avg_dcache_access            0.1425 # avg number accesses of dcache
avg_dcache2_access           0.0124 # avg number accesses of dcache2
avg_alu_access               0.2966 # avg number accesses of alu
avg_resultbus_access         0.4238 # avg number accesses of resultbus
max_rename_access                 4 # max number accesses of rename unit
max_bpred_access                  0 # max number accesses of bpred unit
max_window_access                16 # max number accesses of instruction window
max_lsq_access                    3 # max number accesses of load/store queue
max_regfile_access               11 # max number accesses of arch. regfile
max_icache_access                 4 # max number accesses of icache
max_dcache_access                 4 # max number accesses of dcache
max_dcache2_access                4 # max number accesses of dcache2
max_alu_access                    4 # max number accesses of alu
max_resultbus_access              7 # max number accesses of resultbus
max_cycle_power_cc1         40.6817 # maximum cycle power usage of cc1
max_cycle_power_cc2         26.9445 # maximum cycle power usage of cc2
max_cycle_power_cc3         31.0897 # maximum cycle power usage of cc3
sim_invalid_addrs                 0 # total non-speculative bogus addresses seen (debug var)
ld_text_base           0x0120000000 # program text (code) segment base
ld_text_size                 253952 # program text (code) size in bytes
ld_data_base           0x0140000000 # program initialized data segment base
ld_data_size                  76704 # program init'ed `.data' and uninit'ed `.bss' size in bytes
ld_stack_base          0x011ff9b000 # program stack segment base (highest address in stack)
ld_stack_size                 16384 # program initial stack size
ld_prog_entry          0x0120013bd4 # program entry point (initial PC)
ld_environ_base        0x011ff967e0 # program environment base address address
ld_target_big_endian              0 # target executable endian-ness, non-zero if big endian
mem.page_count                 6268 # total number of pages allocated
mem.page_mem                 50144k # total size of memory pages allocated
mem.ptab_misses                6269 # total first level page table misses
mem.ptab_accesses         198474690 # total page table accesses
mem.ptab_miss_rate           0.0000 # first level page table miss rate

