sim-outorder: SimpleScalar/Alpha Tool Set version 3.0 of August, 2003.
Copyright (c) 1994-2003 by Todd M. Austin, Ph.D. and SimpleScalar, LLC.
All Rights Reserved. This version of SimpleScalar is licensed for academic
non-commercial use.  No portion of this work may be used by any commercial
entity, or for any commercial purpose, without the prior written permission
of SimpleScalar, LLC (info@simplescalar.com).


Processor Parameters:
Issue Width: 4
Window Size: 16
Number of Virtual Registers: 32
Number of Physical Registers: 16
Datapath Width: 64
Total Power Consumption: 72.3917
Branch Predictor Power Consumption: 2.79653  (3.97%)
 branch target buffer power (W): 2.49493
 local predict power (W): 0.0348099
 global predict power (W): 0.0996078
 chooser power (W): 0.0702439
 RAS power (W): 0.0969383
Rename Logic Power Consumption: 0.417965  (0.594%)
 Instruction Decode Power (W): 0.0159915
 RAT decode_power (W): 0.113514
 RAT wordline_power (W): 0.0307815
 RAT bitline_power (W): 0.246771
 DCL Comparators (W): 0.0109075
Instruction Window Power Consumption: 2.20432  (3.13%)
 tagdrive (W): 0.0943488
 tagmatch (W): 0.033695
 Selection Logic (W): 0.0134217
 decode_power (W): 0.0532503
 wordline_power (W): 0.0844643
 bitline_power (W): 1.92514
Load/Store Queue Power Consumption: 0.96318  (1.37%)
 tagdrive (W): 0.457232
 tagmatch (W): 0.100774
 decode_power (W): 0.00799577
 wordline_power (W): 0.0150119
 bitline_power (W): 0.382166
Arch. Register File Power Consumption: 3.57247  (5.08%)
 decode_power (W): 0.113514
 wordline_power (W): 0.0844643
 bitline_power (W): 3.37449
Result Bus Power Consumption: 2.29754  (3.26%)
Total Clock Power: 26.6243  (37.8%)
Int ALU Power: 4.66013  (6.62%)
FP ALU Power: 14.281  (20.3%)
Instruction Cache Power Consumption: 2.76773  (3.93%)
 decode_power (W): 0.151353
 wordline_power (W): 0.180479
 bitline_power (W): 1.42251
 senseamp_power (W): 0.768
 tagarray_power (W): 0.245382
Itlb_power (W): 0.264834 (0.376%)
Data Cache Power Consumption: 5.53546  (7.86%)
 decode_power (W): 0.302705
 wordline_power (W): 0.360958
 bitline_power (W): 2.84503
 senseamp_power (W): 1.536
 tagarray_power (W): 0.490764
Dtlb_power (W): 0.903238 (1.28%)
Level 2 Cache Power Consumption: 3.10298 (4.41%)
 decode_power (W): 0.19487
 wordline_power (W): 0.0430878
 bitline_power (W): 1.77274
 senseamp_power (W): 0.192
 tagarray_power (W): 0.900275
sim: loading EIO file: ../benchmarks/253.perlbmk.diffmail-ref.eio.gz
sim: command line: ./sim-outorder -config ../configs/current.config ../benchmarks/253.perlbmk.diffmail-ref.eio.gz 

sim: simulation started @ Mon Nov 23 19:16:00 2015, options follow:

sim-outorder: This simulator implements a very detailed out-of-order issue
superscalar processor with a two-level memory system and speculative
execution support.  This simulator is a performance simulator, tracking the
latency of all pipeline operations.

# -config                     # load configuration from a file
# -dumpconfig                 # dump configuration to a file
# -h                    false # print help message    
# -v                    false # verbose operation     
# -d                    false # enable debug message  
# -i                    false # start in Dlite debugger
-seed                       1 # random number generator seed (0 for timer seed)
# -q                    false # initialize and terminate immediately
# -chkpt               <null> # restore EIO trace execution from <fname>
# -redir:sim     ../results/10_00_baseline/253.perlbmk.diffmail-ref.eio.gz.out # redirect simulator output to file (non-interactive only)
# -redir:prog       /dev/null # redirect simulated program output to file
-nice                       0 # simulator scheduling priority
-freq            600000000.0000 # frequency             
-max:inst            10000000 # maximum number of inst's to execute
-fastfwd                    0 # number of insts skipped before timing starts
# -ptrace              <null> # generate pipetrace, i.e., <fname|stdout|stderr> <range>
-fetch:ifqsize              4 # instruction fetch queue size (in insts)
-fetch:mplat                3 # extra branch mis-prediction latency
-fetch:speed                1 # speed of front-end of machine relative to execution core
-bpred                perfect # branch predictor type {nottaken|taken|perfect|bimod|2lev|comb}
-bpred:bimod     2048 # bimodal predictor config (<table size>)
-bpred:2lev      1 256 2 0 # 2-level predictor config (<l1size> <l2size> <hist_size> <xor>)
-bpred:comb      1024 # combining predictor config (<meta_table_size>)
-bpred:ras                  8 # return address stack size (0 for no return stack)
-bpred:btb       512 4 # BTB config (<num_sets> <associativity>)
# -bpred:spec_update       <null> # speculative predictors update in {ID|WB} (default non-spec)
-decode:width               4 # instruction decode B/W (insts/cycle)
-issue:width                4 # instruction issue B/W (insts/cycle)
-issue:inorder          false # run pipeline with in-order issue
-issue:wrongpath         true # issue instructions down wrong execution paths
-commit:width               4 # instruction commit B/W (insts/cycle)
-ruu:size                  16 # register update unit (RUU) size
-lsq:size                   8 # load/store queue (LSQ) size
-cache:dl1       dl1:32:64:8:f # l1 data cache config, i.e., {<config>|none}
-cache:dl1lat               1 # l1 data cache hit latency (in cycles)
-cache:dl2       dl2:256:64:8:f # l2 data cache config, i.e., {<config>|none}
-cache:dl2lat               2 # l2 data cache hit latency (in cycles)
-cache:il1       il1:32:64:8:f # l1 inst cache config, i.e., {<config>|dl1|dl2|none}
-cache:il1lat               1 # l1 instruction cache hit latency (in cycles)
-cache:il2                dl2 # l2 instruction cache config, i.e., {<config>|dl2|none}
-cache:il2lat               2 # l2 instruction cache hit latency (in cycles)
-cache:flush            false # flush caches on system calls
-cache:icompress        false # convert 64-bit inst addresses to 32-bit inst equivalents
-mem:lat         103 1 # memory access latency (<first_chunk> <inter_chunk>)
-mem:width                  8 # memory access bus width (in bytes)
-tlb:itlb        itlb:16:4096:4:l # instruction TLB config, i.e., {<config>|none}
-tlb:dtlb        dtlb:32:4096:4:l # data TLB config, i.e., {<config>|none}
-tlb:lat                   30 # inst/data TLB miss latency (in cycles)
-res:ialu                   4 # total number of integer ALU's available
-res:imult                  1 # total number of integer multiplier/dividers available
-res:memport                2 # total number of memory system ports available (to CPU)
-res:fpalu                  4 # total number of floating point ALU's available
-res:fpmult                 1 # total number of floating point multiplier/dividers available
# -pcstat              <null> # profile stat(s) against text addr's (mult uses ok)
-bugcompat              false # operate in backward-compatible bugs mode (for testing only)

  Pipetrace range arguments are formatted as follows:

    {{@|#}<start>}:{{@|#|+}<end>}

  Both ends of the range are optional, if neither are specified, the entire
  execution is traced.  Ranges that start with a `@' designate an address
  range to be traced, those that start with an `#' designate a cycle count
  range.  All other range values represent an instruction count range.  The
  second argument, if specified with a `+', indicates a value relative
  to the first argument, e.g., 1000:+100 == 1000:1100.  Program symbols may
  be used in all contexts.

    Examples:   -ptrace FOO.trc #0:#1000
                -ptrace BAR.trc @2000:
                -ptrace BLAH.trc :1500
                -ptrace UXXE.trc :
                -ptrace FOOBAR.trc @main:+278

  Branch predictor configuration examples for 2-level predictor:
    Configurations:   N, M, W, X
      N   # entries in first level (# of shift register(s))
      W   width of shift register(s)
      M   # entries in 2nd level (# of counters, or other FSM)
      X   (yes-1/no-0) xor history and address for 2nd level index
    Sample predictors:
      GAg     : 1, W, 2^W, 0
      GAp     : 1, W, M (M > 2^W), 0
      PAg     : N, W, 2^W, 0
      PAp     : N, W, M (M == 2^(N+W)), 0
      gshare  : 1, W, 2^W, 1
  Predictor `comb' combines a bimodal and a 2-level predictor.

  The cache config parameter <config> has the following format:

    <name>:<nsets>:<bsize>:<assoc>:<repl>

    <name>   - name of the cache being defined
    <nsets>  - number of sets in the cache
    <bsize>  - block size of the cache
    <assoc>  - associativity of the cache
    <repl>   - block replacement strategy, 'l'-LRU, 'f'-FIFO, 'r'-random

    Examples:   -cache:dl1 dl1:4096:32:1:l
                -dtlb dtlb:128:4096:32:r

  Cache levels can be unified by pointing a level of the instruction cache
  hierarchy at the data cache hiearchy using the "dl1" and "dl2" cache
  configuration arguments.  Most sensible combinations are supported, e.g.,

    A unified l2 cache (il2 is pointed at dl2):
      -cache:il1 il1:128:64:1:l -cache:il2 dl2
      -cache:dl1 dl1:256:32:1:l -cache:dl2 ul2:1024:64:2:l

    Or, a fully unified cache hierarchy (il1 pointed at dl1):
      -cache:il1 dl1
      -cache:dl1 ul1:256:32:1:l -cache:dl2 ul2:1024:64:2:l



sim: ** starting performance simulation **

sim: ** simulation statistics **
sim_num_insn               10000002 # total number of instructions committed
sim_num_refs                4608106 # total number of loads and stores committed
sim_num_loads               2967467 # total number of loads committed
sim_num_stores         1640639.0000 # total number of stores committed
sim_num_branches            1413813 # total number of branches committed
sim_elapsed_time                 11 # total simulation time in seconds
sim_inst_rate           909091.0909 # simulation speed (in insts/sec)
sim_total_insn             10000002 # total number of instructions executed
sim_total_refs              4608106 # total number of loads and stores executed
sim_total_loads             2967467 # total number of loads executed
sim_total_stores       1640639.0000 # total number of stores executed
sim_total_branches          1413813 # total number of branches executed
sim_cycle                   7921423 # total simulation time in cycles
sim_IPC                      1.2624 # instructions per cycle
sim_CPI                      0.7921 # cycles per instruction
sim_exec_BW                  1.2624 # total instructions (mis-spec + committed) per cycle
sim_IPB                      7.0731 # instruction per branch
IFQ_count                  23415253 # cumulative IFQ occupancy
IFQ_fcount                  5827046 # cumulative IFQ full count
ifq_occupancy                2.9559 # avg IFQ occupancy (insn's)
ifq_rate                     1.2624 # avg IFQ dispatch rate (insn/cycle)
ifq_latency                  2.3415 # avg IFQ occupant latency (cycle's)
ifq_full                     0.7356 # fraction of time (cycle's) IFQ was full
RUU_count                  80926342 # cumulative RUU occupancy
RUU_fcount                  1784638 # cumulative RUU full count
ruu_occupancy               10.2161 # avg RUU occupancy (insn's)
ruu_rate                     1.2624 # avg RUU dispatch rate (insn/cycle)
ruu_latency                  8.0926 # avg RUU occupant latency (cycle's)
ruu_full                     0.2253 # fraction of time (cycle's) RUU was full
LSQ_count                  39129070 # cumulative LSQ occupancy
LSQ_fcount                  2780179 # cumulative LSQ full count
lsq_occupancy                4.9397 # avg LSQ occupancy (insn's)
lsq_rate                     1.2624 # avg LSQ dispatch rate (insn/cycle)
lsq_latency                  3.9129 # avg LSQ occupant latency (cycle's)
lsq_full                     0.3510 # fraction of time (cycle's) LSQ was full
sim_slip                  134663454 # total number of slip cycles
avg_sim_slip                13.4663 # the average slip between issue and retirement
il1.accesses               11647543 # total number of accesses
il1.hits                   11543135 # total number of hits
il1.misses                   104408 # total number of misses
il1.replacements             104152 # total number of replacements
il1.writebacks                    0 # total number of writebacks
il1.invalidations                 0 # total number of invalidations
il1.miss_rate                0.0090 # miss rate (i.e., misses/ref)
il1.repl_rate                0.0089 # replacement rate (i.e., repls/ref)
il1.wb_rate                  0.0000 # writeback rate (i.e., wrbks/ref)
il1.inv_rate                 0.0000 # invalidation rate (i.e., invs/ref)
dl1.accesses                4566185 # total number of accesses
dl1.hits                    4494824 # total number of hits
dl1.misses                    71361 # total number of misses
dl1.replacements              71105 # total number of replacements
dl1.writebacks                33855 # total number of writebacks
dl1.invalidations                 0 # total number of invalidations
dl1.miss_rate                0.0156 # miss rate (i.e., misses/ref)
dl1.repl_rate                0.0156 # replacement rate (i.e., repls/ref)
dl1.wb_rate                  0.0074 # writeback rate (i.e., wrbks/ref)
dl1.inv_rate                 0.0000 # invalidation rate (i.e., invs/ref)
dl2.accesses                 209624 # total number of accesses
dl2.hits                     169683 # total number of hits
dl2.misses                    39941 # total number of misses
dl2.replacements              37942 # total number of replacements
dl2.writebacks                 9317 # total number of writebacks
dl2.invalidations                 0 # total number of invalidations
dl2.miss_rate                0.1905 # miss rate (i.e., misses/ref)
dl2.repl_rate                0.1810 # replacement rate (i.e., repls/ref)
dl2.wb_rate                  0.0444 # writeback rate (i.e., wrbks/ref)
dl2.inv_rate                 0.0000 # invalidation rate (i.e., invs/ref)
itlb.accesses              11647543 # total number of accesses
itlb.hits                  11647275 # total number of hits
itlb.misses                     268 # total number of misses
itlb.replacements               209 # total number of replacements
itlb.writebacks                   0 # total number of writebacks
itlb.invalidations                0 # total number of invalidations
itlb.miss_rate               0.0000 # miss rate (i.e., misses/ref)
itlb.repl_rate               0.0000 # replacement rate (i.e., repls/ref)
itlb.wb_rate                 0.0000 # writeback rate (i.e., wrbks/ref)
itlb.inv_rate                0.0000 # invalidation rate (i.e., invs/ref)
dtlb.accesses               4608101 # total number of accesses
dtlb.hits                   4605307 # total number of hits
dtlb.misses                    2794 # total number of misses
dtlb.replacements              2684 # total number of replacements
dtlb.writebacks                   0 # total number of writebacks
dtlb.invalidations                0 # total number of invalidations
dtlb.miss_rate               0.0006 # miss rate (i.e., misses/ref)
dtlb.repl_rate               0.0006 # replacement rate (i.e., repls/ref)
dtlb.wb_rate                 0.0000 # writeback rate (i.e., wrbks/ref)
dtlb.inv_rate                0.0000 # invalidation rate (i.e., invs/ref)
rename_power           3310881.4201 # total power usage of rename unit
bpred_power            22152479.7659 # total power usage of bpred unit
window_power           17461346.5442 # total power usage of instruction window
lsq_power              7629756.1069 # total power usage of load/store queue
regfile_power          28299062.7055 # total power usage of arch. regfile
icache_power           24022214.7195 # total power usage of icache
dcache_power           51003632.8530 # total power usage of dcache
dcache2_power          24579991.5752 # total power usage of dcache2
alu_power              150041062.4705 # total power usage of alu
falu_power             113126197.8928 # total power usage of falu
resultbus_power        18199809.0684 # total power usage of resultbus
clock_power            210902007.8963 # total power usage of clock
avg_rename_power             0.4180 # avg power usage of rename unit
avg_bpred_power              2.7965 # avg power usage of bpred unit
avg_window_power             2.2043 # avg power usage of instruction window
avg_lsq_power                0.9632 # avg power usage of lsq
avg_regfile_power            3.5725 # avg power usage of arch. regfile
avg_icache_power             3.0326 # avg power usage of icache
avg_dcache_power             6.4387 # avg power usage of dcache
avg_dcache2_power            3.1030 # avg power usage of dcache2
avg_alu_power               18.9412 # avg power usage of alu
avg_falu_power              14.2810 # avg power usage of falu
avg_resultbus_power          2.2975 # avg power usage of resultbus
avg_clock_power             26.6243 # avg power usage of clock
fetch_stage_power      46174694.4854 # total power usage of fetch stage
dispatch_stage_power   3310881.4201 # total power usage of dispatch stage
issue_stage_power      268915598.6183 # total power usage of issue stage
avg_fetch_power              5.8291 # average power of fetch unit per cycle
avg_dispatch_power           0.4180 # average power of dispatch unit per cycle
avg_issue_power             33.9479 # average power of issue unit per cycle
total_power            557602245.1256 # total power per cycle
avg_total_power_cycle       70.3917 # average total power per cycle
avg_total_power_cycle_nofp_nod2      53.0077 # average total power per cycle
avg_total_power_insn        55.7602 # average total power per insn
avg_total_power_insn_nofp_nod2      41.9896 # average total power per insn
rename_power_cc1       1545918.9149 # total power usage of rename unit_cc1
bpred_power_cc1              0.0000 # total power usage of bpred unit_cc1
window_power_cc1       9657227.7378 # total power usage of instruction window_cc1
lsq_power_cc1          1671242.6629 # total power usage of lsq_cc1
regfile_power_cc1      12557775.0914 # total power usage of arch. regfile_cc1
icache_power_cc1       11419934.9703 # total power usage of icache_cc1
dcache_power_cc1       19266213.2092 # total power usage of dcache_cc1
dcache2_power_cc1       533947.8310 # total power usage of dcache2_cc1
alu_power_cc1          19069528.7740 # total power usage of alu_cc1
resultbus_power_cc1    9220834.2324 # total power usage of resultbus_cc1
clock_power_cc1        52230389.6442 # total power usage of clock_cc1
avg_rename_power_cc1         0.1952 # avg power usage of rename unit_cc1
avg_bpred_power_cc1          0.0000 # avg power usage of bpred unit_cc1
avg_window_power_cc1         1.2191 # avg power usage of instruction window_cc1
avg_lsq_power_cc1            0.2110 # avg power usage of lsq_cc1
avg_regfile_power_cc1        1.5853 # avg power usage of arch. regfile_cc1
avg_icache_power_cc1         1.4417 # avg power usage of icache_cc1
avg_dcache_power_cc1         2.4322 # avg power usage of dcache_cc1
avg_dcache2_power_cc1        0.0674 # avg power usage of dcache2_cc1
avg_alu_power_cc1            2.4073 # avg power usage of alu_cc1
avg_resultbus_power_cc1       1.1640 # avg power usage of resultbus_cc1
avg_clock_power_cc1          6.5936 # avg power usage of clock_cc1
fetch_stage_power_cc1  11419934.9703 # total power usage of fetch stage_cc1
dispatch_stage_power_cc1 1545918.9149 # total power usage of dispatch stage_cc1
issue_stage_power_cc1  59418994.4473 # total power usage of issue stage_cc1
avg_fetch_power_cc1          1.4417 # average power of fetch unit per cycle_cc1
avg_dispatch_power_cc1       0.1952 # average power of dispatch unit per cycle_cc1
avg_issue_power_cc1          7.5011 # average power of issue unit per cycle_cc1
total_power_cycle_cc1  137173013.0681 # total power per cycle_cc1
avg_total_power_cycle_cc1      17.3167 # average total power per cycle_cc1
avg_total_power_insn_cc1      13.7173 # average total power per insn_cc1
rename_power_cc2       1044913.9260 # total power usage of rename unit_cc2
bpred_power_cc2              0.0000 # total power usage of bpred unit_cc2
window_power_cc2       8452046.6728 # total power usage of instruction window_cc2
lsq_power_cc2          1126449.0842 # total power usage of lsq_cc2
regfile_power_cc2      3827489.4988 # total power usage of arch. regfile_cc2
icache_power_cc2       11419934.9703 # total power usage of icache_cc2
dcache_power_cc2       14700138.0500 # total power usage of dcache_cc2
dcache2_power_cc2       325229.2014 # total power usage of dcache2_cc2
alu_power_cc2          11676568.8757 # total power usage of alu_cc2
resultbus_power_cc2    6221483.7157 # total power usage of resultbus_cc2
clock_power_cc2        36158779.3984 # total power usage of clock_cc2
avg_rename_power_cc2         0.1319 # avg power usage of rename unit_cc2
avg_bpred_power_cc2          0.0000 # avg power usage of bpred unit_cc2
avg_window_power_cc2         1.0670 # avg power usage of instruction window_cc2
avg_lsq_power_cc2            0.1422 # avg power usage of instruction lsq_cc2
avg_regfile_power_cc2        0.4832 # avg power usage of arch. regfile_cc2
avg_icache_power_cc2         1.4417 # avg power usage of icache_cc2
avg_dcache_power_cc2         1.8557 # avg power usage of dcache_cc2
avg_dcache2_power_cc2        0.0411 # avg power usage of dcache2_cc2
avg_alu_power_cc2            1.4740 # avg power usage of alu_cc2
avg_resultbus_power_cc2       0.7854 # avg power usage of resultbus_cc2
avg_clock_power_cc2          4.5647 # avg power usage of clock_cc2
fetch_stage_power_cc2  11419934.9703 # total power usage of fetch stage_cc2
dispatch_stage_power_cc2 1044913.9260 # total power usage of dispatch stage_cc2
issue_stage_power_cc2  42501915.5999 # total power usage of issue stage_cc2
avg_fetch_power_cc2          1.4417 # average power of fetch unit per cycle_cc2
avg_dispatch_power_cc2       0.1319 # average power of dispatch unit per cycle_cc2
avg_issue_power_cc2          5.3654 # average power of issue unit per cycle_cc2
total_power_cycle_cc2  94953033.3933 # total power per cycle_cc2
avg_total_power_cycle_cc2      11.9869 # average total power per cycle_cc2
avg_total_power_insn_cc2       9.4953 # average total power per insn_cc2
rename_power_cc3       1221410.1765 # total power usage of rename unit_cc3
bpred_power_cc3        2215247.9763 # total power usage of bpred unit_cc3
window_power_cc3       9219539.8605 # total power usage of instruction window_cc3
lsq_power_cc3          1719631.5014 # total power usage of lsq_cc3
regfile_power_cc3      5240940.9451 # total power usage of arch. regfile_cc3
icache_power_cc3       12680162.9442 # total power usage of icache_cc3
dcache_power_cc3       17977105.1869 # total power usage of dcache_cc3
dcache2_power_cc3      2730281.6456 # total power usage of dcache2_cc3
alu_power_cc3          24773722.2446 # total power usage of alu_cc3
resultbus_power_cc3    7059033.2163 # total power usage of resultbus_cc3
clock_power_cc3        51943557.0102 # total power usage of clock_cc3
avg_rename_power_cc3         0.1542 # avg power usage of rename unit_cc3
avg_bpred_power_cc3          0.2797 # avg power usage of bpred unit_cc3
avg_window_power_cc3         1.1639 # avg power usage of instruction window_cc3
avg_lsq_power_cc3            0.2171 # avg power usage of instruction lsq_cc3
avg_regfile_power_cc3        0.6616 # avg power usage of arch. regfile_cc3
avg_icache_power_cc3         1.6007 # avg power usage of icache_cc3
avg_dcache_power_cc3         2.2694 # avg power usage of dcache_cc3
avg_dcache2_power_cc3        0.3447 # avg power usage of dcache2_cc3
avg_alu_power_cc3            3.1274 # avg power usage of alu_cc3
avg_resultbus_power_cc3       0.8911 # avg power usage of resultbus_cc3
avg_clock_power_cc3          6.5574 # avg power usage of clock_cc3
fetch_stage_power_cc3  14895410.9205 # total power usage of fetch stage_cc3
dispatch_stage_power_cc3 1221410.1765 # total power usage of dispatch stage_cc3
issue_stage_power_cc3  63479313.6553 # total power usage of issue stage_cc3
avg_fetch_power_cc3          1.8804 # average power of fetch unit per cycle_cc3
avg_dispatch_power_cc3       0.1542 # average power of dispatch unit per cycle_cc3
avg_issue_power_cc3          8.0136 # average power of issue unit per cycle_cc3
total_power_cycle_cc3  136780632.7076 # total power per cycle_cc3
avg_total_power_cycle_cc3      17.2672 # average total power per cycle_cc3
avg_total_power_insn_cc3      13.6781 # average total power per insn_cc3
total_rename_access        10000002 # total number accesses of rename unit
total_bpred_access                0 # total number accesses of bpred unit
total_window_access        39660897 # total number accesses of instruction window
total_lsq_access            4650017 # total number accesses of load/store queue
total_regfile_access       14598644 # total number accesses of arch. regfile
total_icache_access        11647543 # total number accesses of icache
total_dcache_access         4566185 # total number accesses of dcache
total_dcache2_access         209624 # total number accesses of dcache2
total_alu_access            9999923 # total number accesses of alu
total_resultbus_access     11553646 # total number accesses of resultbus
avg_rename_access            1.2624 # avg number accesses of rename unit
avg_bpred_access             0.0000 # avg number accesses of bpred unit
avg_window_access            5.0068 # avg number accesses of instruction window
avg_lsq_access               0.5870 # avg number accesses of lsq
avg_regfile_access           1.8429 # avg number accesses of arch. regfile
avg_icache_access            1.4704 # avg number accesses of icache
avg_dcache_access            0.5764 # avg number accesses of dcache
avg_dcache2_access           0.0265 # avg number accesses of dcache2
avg_alu_access               1.2624 # avg number accesses of alu
avg_resultbus_access         1.4585 # avg number accesses of resultbus
max_rename_access                 4 # max number accesses of rename unit
max_bpred_access                  0 # max number accesses of bpred unit
max_window_access                17 # max number accesses of instruction window
max_lsq_access                    6 # max number accesses of load/store queue
max_regfile_access               12 # max number accesses of arch. regfile
max_icache_access                 4 # max number accesses of icache
max_dcache_access                 4 # max number accesses of dcache
max_dcache2_access                6 # max number accesses of dcache2
max_alu_access                    4 # max number accesses of alu
max_resultbus_access              8 # max number accesses of resultbus
max_cycle_power_cc1         44.5709 # maximum cycle power usage of cc1
max_cycle_power_cc2         31.6917 # maximum cycle power usage of cc2
max_cycle_power_cc3         35.3960 # maximum cycle power usage of cc3
sim_invalid_addrs                 0 # total non-speculative bogus addresses seen (debug var)
ld_text_base           0x0120000000 # program text (code) segment base
ld_text_size                 876544 # program text (code) size in bytes
ld_data_base           0x0140000000 # program initialized data segment base
ld_data_size                 131616 # program init'ed `.data' and uninit'ed `.bss' size in bytes
ld_stack_base          0x011ff9b000 # program stack segment base (highest address in stack)
ld_stack_size                 16384 # program initial stack size
ld_prog_entry          0x01200b4d58 # program entry point (initial PC)
ld_environ_base        0x011ff96b80 # program environment base address address
ld_target_big_endian              0 # target executable endian-ness, non-zero if big endian
mem.page_count                 4996 # total number of pages allocated
mem.page_mem                 39968k # total size of memory pages allocated
mem.ptab_misses               22698 # total first level page table misses
mem.ptab_accesses         166143090 # total page table accesses
mem.ptab_miss_rate           0.0001 # first level page table miss rate

