sim-outorder: SimpleScalar/Alpha Tool Set version 3.0 of August, 2003.
Copyright (c) 1994-2003 by Todd M. Austin, Ph.D. and SimpleScalar, LLC.
All Rights Reserved. This version of SimpleScalar is licensed for academic
non-commercial use.  No portion of this work may be used by any commercial
entity, or for any commercial purpose, without the prior written permission
of SimpleScalar, LLC (info@simplescalar.com).


Processor Parameters:
Issue Width: 4
Window Size: 16
Number of Virtual Registers: 32
Number of Physical Registers: 16
Datapath Width: 64
Total Power Consumption: 73.6205
Branch Predictor Power Consumption: 3.33649  (4.66%)
 branch target buffer power (W): 2.49493
 local predict power (W): 0.574771
 global predict power (W): 0.0996078
 chooser power (W): 0.0702439
 RAS power (W): 0.0969383
Rename Logic Power Consumption: 0.417965  (0.584%)
 Instruction Decode Power (W): 0.0159915
 RAT decode_power (W): 0.113514
 RAT wordline_power (W): 0.0307815
 RAT bitline_power (W): 0.246771
 DCL Comparators (W): 0.0109075
Instruction Window Power Consumption: 2.20432  (3.08%)
 tagdrive (W): 0.0943488
 tagmatch (W): 0.033695
 Selection Logic (W): 0.0134217
 decode_power (W): 0.0532503
 wordline_power (W): 0.0844643
 bitline_power (W): 1.92514
Load/Store Queue Power Consumption: 0.96318  (1.34%)
 tagdrive (W): 0.457232
 tagmatch (W): 0.100774
 decode_power (W): 0.00799577
 wordline_power (W): 0.0150119
 bitline_power (W): 0.382166
Arch. Register File Power Consumption: 3.57247  (4.99%)
 decode_power (W): 0.113514
 wordline_power (W): 0.0844643
 bitline_power (W): 3.37449
Result Bus Power Consumption: 2.29754  (3.21%)
Total Clock Power: 27.3131  (38.1%)
Int ALU Power: 4.66013  (6.51%)
FP ALU Power: 14.281  (19.9%)
Instruction Cache Power Consumption: 2.76773  (3.86%)
 decode_power (W): 0.151353
 wordline_power (W): 0.180479
 bitline_power (W): 1.42251
 senseamp_power (W): 0.768
 tagarray_power (W): 0.245382
Itlb_power (W): 0.264834 (0.37%)
Data Cache Power Consumption: 5.53546  (7.73%)
 decode_power (W): 0.302705
 wordline_power (W): 0.360958
 bitline_power (W): 2.84503
 senseamp_power (W): 1.536
 tagarray_power (W): 0.490764
Dtlb_power (W): 0.903238 (1.26%)
Level 2 Cache Power Consumption: 3.10298 (4.33%)
 decode_power (W): 0.19487
 wordline_power (W): 0.0430878
 bitline_power (W): 1.77274
 senseamp_power (W): 0.192
 tagarray_power (W): 0.900275
sim: loading EIO file: ../benchmarks/164.gzip.log-ref.eio.gz
sim: command line: ./sim-outorder -config ../configs/current.config ../benchmarks/164.gzip.log-ref.eio.gz 

sim: simulation started @ Mon Nov 23 21:09:39 2015, options follow:

sim-outorder: This simulator implements a very detailed out-of-order issue
superscalar processor with a two-level memory system and speculative
execution support.  This simulator is a performance simulator, tracking the
latency of all pipeline operations.

# -config                     # load configuration from a file
# -dumpconfig                 # dump configuration to a file
# -h                    false # print help message    
# -v                    false # verbose operation     
# -d                    false # enable debug message  
# -i                    false # start in Dlite debugger
-seed                       1 # random number generator seed (0 for timer seed)
# -q                    false # initialize and terminate immediately
# -chkpt               <null> # restore EIO trace execution from <fname>
# -redir:sim     ../results/14_01_ugh2/164.gzip.log-ref.eio.gz.out # redirect simulator output to file (non-interactive only)
# -redir:prog       /dev/null # redirect simulated program output to file
-nice                       0 # simulator scheduling priority
-freq            600000000.0000 # frequency             
-max:inst           100000000 # maximum number of inst's to execute
-fastfwd                    0 # number of insts skipped before timing starts
# -ptrace              <null> # generate pipetrace, i.e., <fname|stdout|stderr> <range>
-fetch:ifqsize              4 # instruction fetch queue size (in insts)
-fetch:mplat               15 # extra branch mis-prediction latency
-fetch:speed                1 # speed of front-end of machine relative to execution core
-bpred                perfect # branch predictor type {nottaken|taken|perfect|bimod|2lev|comb}
-bpred:bimod     2048 # bimodal predictor config (<table size>)
-bpred:2lev      1 16384 4 0 # 2-level predictor config (<l1size> <l2size> <hist_size> <xor>)
-bpred:comb      1024 # combining predictor config (<meta_table_size>)
-bpred:ras                  8 # return address stack size (0 for no return stack)
-bpred:btb       512 4 # BTB config (<num_sets> <associativity>)
# -bpred:spec_update       <null> # speculative predictors update in {ID|WB} (default non-spec)
-decode:width               4 # instruction decode B/W (insts/cycle)
-issue:width                4 # instruction issue B/W (insts/cycle)
-issue:inorder          false # run pipeline with in-order issue
-issue:wrongpath         true # issue instructions down wrong execution paths
-commit:width               4 # instruction commit B/W (insts/cycle)
-ruu:size                  16 # register update unit (RUU) size
-lsq:size                   8 # load/store queue (LSQ) size
-cache:dl1       dl1:32:64:8:f # l1 data cache config, i.e., {<config>|none}
-cache:dl1lat               1 # l1 data cache hit latency (in cycles)
-cache:dl2       dl2:256:64:8:f # l2 data cache config, i.e., {<config>|none}
-cache:dl2lat               2 # l2 data cache hit latency (in cycles)
-cache:il1       il1:32:64:8:f # l1 inst cache config, i.e., {<config>|dl1|dl2|none}
-cache:il1lat               1 # l1 instruction cache hit latency (in cycles)
-cache:il2                dl2 # l2 instruction cache config, i.e., {<config>|dl2|none}
-cache:il2lat               2 # l2 instruction cache hit latency (in cycles)
-cache:flush            false # flush caches on system calls
-cache:icompress        false # convert 64-bit inst addresses to 32-bit inst equivalents
-mem:lat         103 1 # memory access latency (<first_chunk> <inter_chunk>)
-mem:width                  8 # memory access bus width (in bytes)
-tlb:itlb        itlb:16:4096:4:l # instruction TLB config, i.e., {<config>|none}
-tlb:dtlb        dtlb:32:4096:4:l # data TLB config, i.e., {<config>|none}
-tlb:lat                   30 # inst/data TLB miss latency (in cycles)
-res:ialu                   4 # total number of integer ALU's available
-res:imult                  1 # total number of integer multiplier/dividers available
-res:memport                2 # total number of memory system ports available (to CPU)
-res:fpalu                  4 # total number of floating point ALU's available
-res:fpmult                 1 # total number of floating point multiplier/dividers available
# -pcstat              <null> # profile stat(s) against text addr's (mult uses ok)
-bugcompat              false # operate in backward-compatible bugs mode (for testing only)

  Pipetrace range arguments are formatted as follows:

    {{@|#}<start>}:{{@|#|+}<end>}

  Both ends of the range are optional, if neither are specified, the entire
  execution is traced.  Ranges that start with a `@' designate an address
  range to be traced, those that start with an `#' designate a cycle count
  range.  All other range values represent an instruction count range.  The
  second argument, if specified with a `+', indicates a value relative
  to the first argument, e.g., 1000:+100 == 1000:1100.  Program symbols may
  be used in all contexts.

    Examples:   -ptrace FOO.trc #0:#1000
                -ptrace BAR.trc @2000:
                -ptrace BLAH.trc :1500
                -ptrace UXXE.trc :
                -ptrace FOOBAR.trc @main:+278

  Branch predictor configuration examples for 2-level predictor:
    Configurations:   N, M, W, X
      N   # entries in first level (# of shift register(s))
      W   width of shift register(s)
      M   # entries in 2nd level (# of counters, or other FSM)
      X   (yes-1/no-0) xor history and address for 2nd level index
    Sample predictors:
      GAg     : 1, W, 2^W, 0
      GAp     : 1, W, M (M > 2^W), 0
      PAg     : N, W, 2^W, 0
      PAp     : N, W, M (M == 2^(N+W)), 0
      gshare  : 1, W, 2^W, 1
  Predictor `comb' combines a bimodal and a 2-level predictor.

  The cache config parameter <config> has the following format:

    <name>:<nsets>:<bsize>:<assoc>:<repl>

    <name>   - name of the cache being defined
    <nsets>  - number of sets in the cache
    <bsize>  - block size of the cache
    <assoc>  - associativity of the cache
    <repl>   - block replacement strategy, 'l'-LRU, 'f'-FIFO, 'r'-random

    Examples:   -cache:dl1 dl1:4096:32:1:l
                -dtlb dtlb:128:4096:32:r

  Cache levels can be unified by pointing a level of the instruction cache
  hierarchy at the data cache hiearchy using the "dl1" and "dl2" cache
  configuration arguments.  Most sensible combinations are supported, e.g.,

    A unified l2 cache (il2 is pointed at dl2):
      -cache:il1 il1:128:64:1:l -cache:il2 dl2
      -cache:dl1 dl1:256:32:1:l -cache:dl2 ul2:1024:64:2:l

    Or, a fully unified cache hierarchy (il1 pointed at dl1):
      -cache:il1 dl1
      -cache:dl1 ul1:256:32:1:l -cache:dl2 ul2:1024:64:2:l



sim: ** starting performance simulation **

sim: ** simulation statistics **
sim_num_insn              100000001 # total number of instructions committed
sim_num_refs               29770710 # total number of loads and stores committed
sim_num_loads              24694252 # total number of loads committed
sim_num_stores         5076458.0000 # total number of stores committed
sim_num_branches           11683348 # total number of branches committed
sim_elapsed_time                 91 # total simulation time in seconds
sim_inst_rate          1098901.1099 # simulation speed (in insts/sec)
sim_total_insn            100000001 # total number of instructions executed
sim_total_refs             29770710 # total number of loads and stores executed
sim_total_loads            24694252 # total number of loads executed
sim_total_stores       5076458.0000 # total number of stores executed
sim_total_branches         11683348 # total number of branches executed
sim_cycle                  65726735 # total simulation time in cycles
sim_IPC                      1.5215 # instructions per cycle
sim_CPI                      0.6573 # cycles per instruction
sim_exec_BW                  1.5215 # total instructions (mis-spec + committed) per cycle
sim_IPB                      8.5592 # instruction per branch
IFQ_count                 262837619 # cumulative IFQ occupancy
IFQ_fcount                 65709240 # cumulative IFQ full count
ifq_occupancy                3.9989 # avg IFQ occupancy (insn's)
ifq_rate                     1.5215 # avg IFQ dispatch rate (insn/cycle)
ifq_latency                  2.6284 # avg IFQ occupant latency (cycle's)
ifq_full                     0.9997 # fraction of time (cycle's) IFQ was full
RUU_count                1011342315 # cumulative RUU occupancy
RUU_fcount                 48385032 # cumulative RUU full count
ruu_occupancy               15.3871 # avg RUU occupancy (insn's)
ruu_rate                     1.5215 # avg RUU dispatch rate (insn/cycle)
ruu_latency                 10.1134 # avg RUU occupant latency (cycle's)
ruu_full                     0.7362 # fraction of time (cycle's) RUU was full
LSQ_count                 332719078 # cumulative LSQ occupancy
LSQ_fcount                  9036519 # cumulative LSQ full count
lsq_occupancy                5.0622 # avg LSQ occupancy (insn's)
lsq_rate                     1.5215 # avg LSQ dispatch rate (insn/cycle)
lsq_latency                  3.3272 # avg LSQ occupant latency (cycle's)
lsq_full                     0.1375 # fraction of time (cycle's) LSQ was full
sim_slip                 1473832008 # total number of slip cycles
avg_sim_slip                14.7383 # the average slip between issue and retirement
il1.accesses              117273621 # total number of accesses
il1.hits                  117273462 # total number of hits
il1.misses                      159 # total number of misses
il1.replacements                  0 # total number of replacements
il1.writebacks                    0 # total number of writebacks
il1.invalidations                 0 # total number of invalidations
il1.miss_rate                0.0000 # miss rate (i.e., misses/ref)
il1.repl_rate                0.0000 # replacement rate (i.e., repls/ref)
il1.wb_rate                  0.0000 # writeback rate (i.e., wrbks/ref)
il1.inv_rate                 0.0000 # invalidation rate (i.e., invs/ref)
dl1.accesses               29752061 # total number of accesses
dl1.hits                   25115754 # total number of hits
dl1.misses                  4636307 # total number of misses
dl1.replacements            4636051 # total number of replacements
dl1.writebacks               667550 # total number of writebacks
dl1.invalidations                 0 # total number of invalidations
dl1.miss_rate                0.1558 # miss rate (i.e., misses/ref)
dl1.repl_rate                0.1558 # replacement rate (i.e., repls/ref)
dl1.wb_rate                  0.0224 # writeback rate (i.e., wrbks/ref)
dl1.inv_rate                 0.0000 # invalidation rate (i.e., invs/ref)
dl2.accesses                5304016 # total number of accesses
dl2.hits                    5090120 # total number of hits
dl2.misses                   213896 # total number of misses
dl2.replacements             211848 # total number of replacements
dl2.writebacks               109109 # total number of writebacks
dl2.invalidations                 0 # total number of invalidations
dl2.miss_rate                0.0403 # miss rate (i.e., misses/ref)
dl2.repl_rate                0.0399 # replacement rate (i.e., repls/ref)
dl2.wb_rate                  0.0206 # writeback rate (i.e., wrbks/ref)
dl2.inv_rate                 0.0000 # invalidation rate (i.e., invs/ref)
itlb.accesses             117273621 # total number of accesses
itlb.hits                 117273612 # total number of hits
itlb.misses                       9 # total number of misses
itlb.replacements                 0 # total number of replacements
itlb.writebacks                   0 # total number of writebacks
itlb.invalidations                0 # total number of invalidations
itlb.miss_rate               0.0000 # miss rate (i.e., misses/ref)
itlb.repl_rate               0.0000 # replacement rate (i.e., repls/ref)
itlb.wb_rate                 0.0000 # writeback rate (i.e., wrbks/ref)
itlb.inv_rate                0.0000 # invalidation rate (i.e., invs/ref)
dtlb.accesses              29770707 # total number of accesses
dtlb.hits                  29770482 # total number of hits
dtlb.misses                     225 # total number of misses
dtlb.replacements                97 # total number of replacements
dtlb.writebacks                   0 # total number of writebacks
dtlb.invalidations                0 # total number of invalidations
dtlb.miss_rate               0.0000 # miss rate (i.e., misses/ref)
dtlb.repl_rate               0.0000 # replacement rate (i.e., repls/ref)
dtlb.wb_rate                 0.0000 # writeback rate (i.e., wrbks/ref)
dtlb.inv_rate                0.0000 # invalidation rate (i.e., invs/ref)
rename_power           27471506.7808 # total power usage of rename unit
bpred_power            219296496.5006 # total power usage of bpred unit
window_power           144882718.2191 # total power usage of instruction window
lsq_power              63306675.8790 # total power usage of load/store queue
regfile_power          234806927.1629 # total power usage of arch. regfile
icache_power           199320468.4868 # total power usage of icache
dcache_power           423194451.7550 # total power usage of dcache
dcache2_power          203948531.8588 # total power usage of dcache2
alu_power              1244941618.4124 # total power usage of alu
falu_power             938646457.4709 # total power usage of falu
resultbus_power        151009992.4999 # total power usage of resultbus
clock_power            1795204046.4489 # total power usage of clock
avg_rename_power             0.4180 # avg power usage of rename unit
avg_bpred_power              3.3365 # avg power usage of bpred unit
avg_window_power             2.2043 # avg power usage of instruction window
avg_lsq_power                0.9632 # avg power usage of lsq
avg_regfile_power            3.5725 # avg power usage of arch. regfile
avg_icache_power             3.0326 # avg power usage of icache
avg_dcache_power             6.4387 # avg power usage of dcache
avg_dcache2_power            3.1030 # avg power usage of dcache2
avg_alu_power               18.9412 # avg power usage of alu
avg_falu_power              14.2810 # avg power usage of falu
avg_resultbus_power          2.2975 # avg power usage of resultbus
avg_clock_power             27.3131 # avg power usage of clock
fetch_stage_power      418616964.9874 # total power usage of fetch stage
dispatch_stage_power   27471506.7808 # total power usage of dispatch stage
issue_stage_power      2231283988.6242 # total power usage of issue stage
avg_fetch_power              6.3691 # average power of fetch unit per cycle
avg_dispatch_power           0.4180 # average power of dispatch unit per cycle
avg_issue_power             33.9479 # average power of issue unit per cycle
total_power            4707383434.0042 # total power per cycle
avg_total_power_cycle       71.6205 # average total power per cycle
avg_total_power_cycle_nofp_nod2      54.2365 # average total power per cycle
avg_total_power_insn        47.0738 # average total power per insn
avg_total_power_insn_nofp_nod2      35.6479 # average total power per insn
rename_power_cc1       16251940.1026 # total power usage of rename unit_cc1
bpred_power_cc1              0.0000 # total power usage of bpred unit_cc1
window_power_cc1       97572048.0171 # total power usage of instruction window_cc1
lsq_power_cc1          11045863.9365 # total power usage of lsq_cc1
regfile_power_cc1      131180523.7299 # total power usage of arch. regfile_cc1
icache_power_cc1       117916823.2941 # total power usage of icache_cc1
dcache_power_cc1       129453767.9226 # total power usage of dcache_cc1
dcache2_power_cc1      14312551.7312 # total power usage of dcache2_cc1
alu_power_cc1          199537885.0717 # total power usage of alu_cc1
resultbus_power_cc1    97414320.0564 # total power usage of resultbus_cc1
clock_power_cc1        526411688.0766 # total power usage of clock_cc1
avg_rename_power_cc1         0.2473 # avg power usage of rename unit_cc1
avg_bpred_power_cc1          0.0000 # avg power usage of bpred unit_cc1
avg_window_power_cc1         1.4845 # avg power usage of instruction window_cc1
avg_lsq_power_cc1            0.1681 # avg power usage of lsq_cc1
avg_regfile_power_cc1        1.9958 # avg power usage of arch. regfile_cc1
avg_icache_power_cc1         1.7940 # avg power usage of icache_cc1
avg_dcache_power_cc1         1.9696 # avg power usage of dcache_cc1
avg_dcache2_power_cc1        0.2178 # avg power usage of dcache2_cc1
avg_alu_power_cc1            3.0359 # avg power usage of alu_cc1
avg_resultbus_power_cc1       1.4821 # avg power usage of resultbus_cc1
avg_clock_power_cc1          8.0091 # avg power usage of clock_cc1
fetch_stage_power_cc1  117916823.2941 # total power usage of fetch stage_cc1
dispatch_stage_power_cc1 16251940.1026 # total power usage of dispatch stage_cc1
issue_stage_power_cc1  549336436.7355 # total power usage of issue stage_cc1
avg_fetch_power_cc1          1.7940 # average power of fetch unit per cycle_cc1
avg_dispatch_power_cc1       0.2473 # average power of dispatch unit per cycle_cc1
avg_issue_power_cc1          8.3579 # average power of issue unit per cycle_cc1
total_power_cycle_cc1  1341097411.9388 # total power per cycle_cc1
avg_total_power_cycle_cc1      20.4041 # average total power per cycle_cc1
avg_total_power_insn_cc1      13.4110 # average total power per insn_cc1
rename_power_cc2       10449137.2714 # total power usage of rename unit_cc2
bpred_power_cc2              0.0000 # total power usage of bpred unit_cc2
window_power_cc2       80350648.8356 # total power usage of instruction window_cc2
lsq_power_cc2          7821453.9271 # total power usage of lsq_cc2
regfile_power_cc2      39932577.1634 # total power usage of arch. regfile_cc2
icache_power_cc2       117916823.2941 # total power usage of icache_cc2
dcache_power_cc2       95782234.8667 # total power usage of dcache_cc2
dcache2_power_cc2      8229119.2241 # total power usage of dcache2_cc2
alu_power_cc2          116481959.8783 # total power usage of alu_cc2
resultbus_power_cc2    60854855.3211 # total power usage of resultbus_cc2
clock_power_cc2        348914573.8133 # total power usage of clock_cc2
avg_rename_power_cc2         0.1590 # avg power usage of rename unit_cc2
avg_bpred_power_cc2          0.0000 # avg power usage of bpred unit_cc2
avg_window_power_cc2         1.2225 # avg power usage of instruction window_cc2
avg_lsq_power_cc2            0.1190 # avg power usage of instruction lsq_cc2
avg_regfile_power_cc2        0.6076 # avg power usage of arch. regfile_cc2
avg_icache_power_cc2         1.7940 # avg power usage of icache_cc2
avg_dcache_power_cc2         1.4573 # avg power usage of dcache_cc2
avg_dcache2_power_cc2        0.1252 # avg power usage of dcache2_cc2
avg_alu_power_cc2            1.7722 # avg power usage of alu_cc2
avg_resultbus_power_cc2       0.9259 # avg power usage of resultbus_cc2
avg_clock_power_cc2          5.3086 # avg power usage of clock_cc2
fetch_stage_power_cc2  117916823.2941 # total power usage of fetch stage_cc2
dispatch_stage_power_cc2 10449137.2714 # total power usage of dispatch stage_cc2
issue_stage_power_cc2  369520272.0529 # total power usage of issue stage_cc2
avg_fetch_power_cc2          1.7940 # average power of fetch unit per cycle_cc2
avg_dispatch_power_cc2       0.1590 # average power of dispatch unit per cycle_cc2
avg_issue_power_cc2          5.6221 # average power of issue unit per cycle_cc2
total_power_cycle_cc2  886733383.5951 # total power per cycle_cc2
avg_total_power_cycle_cc2      13.4912 # average total power per cycle_cc2
avg_total_power_insn_cc2       8.8673 # average total power per insn_cc2
rename_power_cc3       11571093.9334 # total power usage of rename unit_cc3
bpred_power_cc3        21929649.6698 # total power usage of bpred unit_cc3
window_power_cc3       84672397.4657 # total power usage of instruction window_cc3
lsq_power_cc3          13032502.3160 # total power usage of lsq_cc3
regfile_power_cc3      48979418.0073 # total power usage of arch. regfile_cc3
icache_power_cc3       126057187.7642 # total power usage of icache_cc3
dcache_power_cc3       125259680.0632 # total power usage of dcache_cc3
dcache2_power_cc3      27194004.0164 # total power usage of dcache2_cc3
alu_power_cc3          221022332.7692 # total power usage of alu_cc3
resultbus_power_cc3    65664813.7677 # total power usage of resultbus_cc3
clock_power_cc3        474375718.5924 # total power usage of clock_cc3
avg_rename_power_cc3         0.1760 # avg power usage of rename unit_cc3
avg_bpred_power_cc3          0.3336 # avg power usage of bpred unit_cc3
avg_window_power_cc3         1.2882 # avg power usage of instruction window_cc3
avg_lsq_power_cc3            0.1983 # avg power usage of instruction lsq_cc3
avg_regfile_power_cc3        0.7452 # avg power usage of arch. regfile_cc3
avg_icache_power_cc3         1.9179 # avg power usage of icache_cc3
avg_dcache_power_cc3         1.9058 # avg power usage of dcache_cc3
avg_dcache2_power_cc3        0.4137 # avg power usage of dcache2_cc3
avg_alu_power_cc3            3.3627 # avg power usage of alu_cc3
avg_resultbus_power_cc3       0.9991 # avg power usage of resultbus_cc3
avg_clock_power_cc3          7.2174 # avg power usage of clock_cc3
fetch_stage_power_cc3  147986837.4340 # total power usage of fetch stage_cc3
dispatch_stage_power_cc3 11571093.9334 # total power usage of dispatch stage_cc3
issue_stage_power_cc3  536845730.3982 # total power usage of issue stage_cc3
avg_fetch_power_cc3          2.2515 # average power of fetch unit per cycle_cc3
avg_dispatch_power_cc3       0.1760 # average power of dispatch unit per cycle_cc3
avg_issue_power_cc3          8.1678 # average power of issue unit per cycle_cc3
total_power_cycle_cc3  1219758798.3652 # total power per cycle_cc3
avg_total_power_cycle_cc3      18.5580 # average total power per cycle_cc3
avg_total_power_insn_cc3      12.1976 # average total power per insn_cc3
total_rename_access       100000001 # total number accesses of rename unit
total_bpred_access                0 # total number accesses of bpred unit
total_window_access       367593379 # total number accesses of instruction window
total_lsq_access           29789353 # total number accesses of load/store queue
total_regfile_access      148467856 # total number accesses of arch. regfile
total_icache_access       117273621 # total number accesses of icache
total_dcache_access        29752061 # total number accesses of dcache
total_dcache2_access        5304016 # total number accesses of dcache2
total_alu_access           99981716 # total number accesses of alu
total_resultbus_access    113010897 # total number accesses of resultbus
avg_rename_access            1.5215 # avg number accesses of rename unit
avg_bpred_access             0.0000 # avg number accesses of bpred unit
avg_window_access            5.5928 # avg number accesses of instruction window
avg_lsq_access               0.4532 # avg number accesses of lsq
avg_regfile_access           2.2589 # avg number accesses of arch. regfile
avg_icache_access            1.7843 # avg number accesses of icache
avg_dcache_access            0.4527 # avg number accesses of dcache
avg_dcache2_access           0.0807 # avg number accesses of dcache2
avg_alu_access               1.5212 # avg number accesses of alu
avg_resultbus_access         1.7194 # avg number accesses of resultbus
max_rename_access                 4 # max number accesses of rename unit
max_bpred_access                  0 # max number accesses of bpred unit
max_window_access                17 # max number accesses of instruction window
max_lsq_access                    5 # max number accesses of load/store queue
max_regfile_access               12 # max number accesses of arch. regfile
max_icache_access                 4 # max number accesses of icache
max_dcache_access                 4 # max number accesses of dcache
max_dcache2_access                5 # max number accesses of dcache2
max_alu_access                    4 # max number accesses of alu
max_resultbus_access              6 # max number accesses of resultbus
max_cycle_power_cc1         38.2758 # maximum cycle power usage of cc1
max_cycle_power_cc2         31.7605 # maximum cycle power usage of cc2
max_cycle_power_cc3         35.4651 # maximum cycle power usage of cc3
sim_invalid_addrs                 0 # total non-speculative bogus addresses seen (debug var)
ld_text_base           0x0120000000 # program text (code) segment base
ld_text_size                 212992 # program text (code) size in bytes
ld_data_base           0x0140000000 # program initialized data segment base
ld_data_size                 402416 # program init'ed `.data' and uninit'ed `.bss' size in bytes
ld_stack_base          0x011ff9b000 # program stack segment base (highest address in stack)
ld_stack_size                 16384 # program initial stack size
ld_prog_entry          0x01200095e0 # program entry point (initial PC)
ld_environ_base        0x011ff96ef0 # program environment base address address
ld_target_big_endian              0 # target executable endian-ness, non-zero if big endian
mem.page_count                23129 # total number of pages allocated
mem.page_mem                185032k # total size of memory pages allocated
mem.ptab_misses             6810087 # total first level page table misses
mem.ptab_accesses         871219914 # total page table accesses
mem.ptab_miss_rate           0.0078 # first level page table miss rate

