sim-outorder: SimpleScalar/Alpha Tool Set version 3.0 of August, 2003.
Copyright (c) 1994-2003 by Todd M. Austin, Ph.D. and SimpleScalar, LLC.
All Rights Reserved. This version of SimpleScalar is licensed for academic
non-commercial use.  No portion of this work may be used by any commercial
entity, or for any commercial purpose, without the prior written permission
of SimpleScalar, LLC (info@simplescalar.com).


Processor Parameters:
Issue Width: 4
Window Size: 16
Number of Virtual Registers: 32
Number of Physical Registers: 16
Datapath Width: 64
Total Power Consumption: 73.6205
Branch Predictor Power Consumption: 3.33649  (4.66%)
 branch target buffer power (W): 2.49493
 local predict power (W): 0.574771
 global predict power (W): 0.0996078
 chooser power (W): 0.0702439
 RAS power (W): 0.0969383
Rename Logic Power Consumption: 0.417965  (0.584%)
 Instruction Decode Power (W): 0.0159915
 RAT decode_power (W): 0.113514
 RAT wordline_power (W): 0.0307815
 RAT bitline_power (W): 0.246771
 DCL Comparators (W): 0.0109075
Instruction Window Power Consumption: 2.20432  (3.08%)
 tagdrive (W): 0.0943488
 tagmatch (W): 0.033695
 Selection Logic (W): 0.0134217
 decode_power (W): 0.0532503
 wordline_power (W): 0.0844643
 bitline_power (W): 1.92514
Load/Store Queue Power Consumption: 0.96318  (1.34%)
 tagdrive (W): 0.457232
 tagmatch (W): 0.100774
 decode_power (W): 0.00799577
 wordline_power (W): 0.0150119
 bitline_power (W): 0.382166
Arch. Register File Power Consumption: 3.57247  (4.99%)
 decode_power (W): 0.113514
 wordline_power (W): 0.0844643
 bitline_power (W): 3.37449
Result Bus Power Consumption: 2.29754  (3.21%)
Total Clock Power: 27.3131  (38.1%)
Int ALU Power: 4.66013  (6.51%)
FP ALU Power: 14.281  (19.9%)
Instruction Cache Power Consumption: 2.76773  (3.86%)
 decode_power (W): 0.151353
 wordline_power (W): 0.180479
 bitline_power (W): 1.42251
 senseamp_power (W): 0.768
 tagarray_power (W): 0.245382
Itlb_power (W): 0.264834 (0.37%)
Data Cache Power Consumption: 5.53546  (7.73%)
 decode_power (W): 0.302705
 wordline_power (W): 0.360958
 bitline_power (W): 2.84503
 senseamp_power (W): 1.536
 tagarray_power (W): 0.490764
Dtlb_power (W): 0.903238 (1.26%)
Level 2 Cache Power Consumption: 3.10298 (4.33%)
 decode_power (W): 0.19487
 wordline_power (W): 0.0430878
 bitline_power (W): 1.77274
 senseamp_power (W): 0.192
 tagarray_power (W): 0.900275
sim: loading EIO file: ../benchmarks/177.mesa.spec_ref.eio.gz
sim: command line: ./sim-outorder -config ../configs/current.config ../benchmarks/177.mesa.spec_ref.eio.gz 

sim: simulation started @ Mon Nov 23 21:09:28 2015, options follow:

sim-outorder: This simulator implements a very detailed out-of-order issue
superscalar processor with a two-level memory system and speculative
execution support.  This simulator is a performance simulator, tracking the
latency of all pipeline operations.

# -config                     # load configuration from a file
# -dumpconfig                 # dump configuration to a file
# -h                    false # print help message    
# -v                    false # verbose operation     
# -d                    false # enable debug message  
# -i                    false # start in Dlite debugger
-seed                       1 # random number generator seed (0 for timer seed)
# -q                    false # initialize and terminate immediately
# -chkpt               <null> # restore EIO trace execution from <fname>
# -redir:sim     ../results/14_01_ugh2/177.mesa.spec_ref.eio.gz.out # redirect simulator output to file (non-interactive only)
# -redir:prog       /dev/null # redirect simulated program output to file
-nice                       0 # simulator scheduling priority
-freq            600000000.0000 # frequency             
-max:inst           100000000 # maximum number of inst's to execute
-fastfwd                    0 # number of insts skipped before timing starts
# -ptrace              <null> # generate pipetrace, i.e., <fname|stdout|stderr> <range>
-fetch:ifqsize              4 # instruction fetch queue size (in insts)
-fetch:mplat               15 # extra branch mis-prediction latency
-fetch:speed                1 # speed of front-end of machine relative to execution core
-bpred                perfect # branch predictor type {nottaken|taken|perfect|bimod|2lev|comb}
-bpred:bimod     2048 # bimodal predictor config (<table size>)
-bpred:2lev      1 16384 4 0 # 2-level predictor config (<l1size> <l2size> <hist_size> <xor>)
-bpred:comb      1024 # combining predictor config (<meta_table_size>)
-bpred:ras                  8 # return address stack size (0 for no return stack)
-bpred:btb       512 4 # BTB config (<num_sets> <associativity>)
# -bpred:spec_update       <null> # speculative predictors update in {ID|WB} (default non-spec)
-decode:width               4 # instruction decode B/W (insts/cycle)
-issue:width                4 # instruction issue B/W (insts/cycle)
-issue:inorder          false # run pipeline with in-order issue
-issue:wrongpath         true # issue instructions down wrong execution paths
-commit:width               4 # instruction commit B/W (insts/cycle)
-ruu:size                  16 # register update unit (RUU) size
-lsq:size                   8 # load/store queue (LSQ) size
-cache:dl1       dl1:32:64:8:f # l1 data cache config, i.e., {<config>|none}
-cache:dl1lat               1 # l1 data cache hit latency (in cycles)
-cache:dl2       dl2:256:64:8:f # l2 data cache config, i.e., {<config>|none}
-cache:dl2lat               2 # l2 data cache hit latency (in cycles)
-cache:il1       il1:32:64:8:f # l1 inst cache config, i.e., {<config>|dl1|dl2|none}
-cache:il1lat               1 # l1 instruction cache hit latency (in cycles)
-cache:il2                dl2 # l2 instruction cache config, i.e., {<config>|dl2|none}
-cache:il2lat               2 # l2 instruction cache hit latency (in cycles)
-cache:flush            false # flush caches on system calls
-cache:icompress        false # convert 64-bit inst addresses to 32-bit inst equivalents
-mem:lat         103 1 # memory access latency (<first_chunk> <inter_chunk>)
-mem:width                  8 # memory access bus width (in bytes)
-tlb:itlb        itlb:16:4096:4:l # instruction TLB config, i.e., {<config>|none}
-tlb:dtlb        dtlb:32:4096:4:l # data TLB config, i.e., {<config>|none}
-tlb:lat                   30 # inst/data TLB miss latency (in cycles)
-res:ialu                   4 # total number of integer ALU's available
-res:imult                  1 # total number of integer multiplier/dividers available
-res:memport                2 # total number of memory system ports available (to CPU)
-res:fpalu                  4 # total number of floating point ALU's available
-res:fpmult                 1 # total number of floating point multiplier/dividers available
# -pcstat              <null> # profile stat(s) against text addr's (mult uses ok)
-bugcompat              false # operate in backward-compatible bugs mode (for testing only)

  Pipetrace range arguments are formatted as follows:

    {{@|#}<start>}:{{@|#|+}<end>}

  Both ends of the range are optional, if neither are specified, the entire
  execution is traced.  Ranges that start with a `@' designate an address
  range to be traced, those that start with an `#' designate a cycle count
  range.  All other range values represent an instruction count range.  The
  second argument, if specified with a `+', indicates a value relative
  to the first argument, e.g., 1000:+100 == 1000:1100.  Program symbols may
  be used in all contexts.

    Examples:   -ptrace FOO.trc #0:#1000
                -ptrace BAR.trc @2000:
                -ptrace BLAH.trc :1500
                -ptrace UXXE.trc :
                -ptrace FOOBAR.trc @main:+278

  Branch predictor configuration examples for 2-level predictor:
    Configurations:   N, M, W, X
      N   # entries in first level (# of shift register(s))
      W   width of shift register(s)
      M   # entries in 2nd level (# of counters, or other FSM)
      X   (yes-1/no-0) xor history and address for 2nd level index
    Sample predictors:
      GAg     : 1, W, 2^W, 0
      GAp     : 1, W, M (M > 2^W), 0
      PAg     : N, W, 2^W, 0
      PAp     : N, W, M (M == 2^(N+W)), 0
      gshare  : 1, W, 2^W, 1
  Predictor `comb' combines a bimodal and a 2-level predictor.

  The cache config parameter <config> has the following format:

    <name>:<nsets>:<bsize>:<assoc>:<repl>

    <name>   - name of the cache being defined
    <nsets>  - number of sets in the cache
    <bsize>  - block size of the cache
    <assoc>  - associativity of the cache
    <repl>   - block replacement strategy, 'l'-LRU, 'f'-FIFO, 'r'-random

    Examples:   -cache:dl1 dl1:4096:32:1:l
                -dtlb dtlb:128:4096:32:r

  Cache levels can be unified by pointing a level of the instruction cache
  hierarchy at the data cache hiearchy using the "dl1" and "dl2" cache
  configuration arguments.  Most sensible combinations are supported, e.g.,

    A unified l2 cache (il2 is pointed at dl2):
      -cache:il1 il1:128:64:1:l -cache:il2 dl2
      -cache:dl1 dl1:256:32:1:l -cache:dl2 ul2:1024:64:2:l

    Or, a fully unified cache hierarchy (il1 pointed at dl1):
      -cache:il1 dl1
      -cache:dl1 ul1:256:32:1:l -cache:dl2 ul2:1024:64:2:l



sim: ** starting performance simulation **

sim: ** simulation statistics **
sim_num_insn              100000000 # total number of instructions committed
sim_num_refs               39005166 # total number of loads and stores committed
sim_num_loads              27138656 # total number of loads committed
sim_num_stores         11866510.0000 # total number of stores committed
sim_num_branches            8691668 # total number of branches committed
sim_elapsed_time                137 # total simulation time in seconds
sim_inst_rate           729927.0073 # simulation speed (in insts/sec)
sim_total_insn            100000000 # total number of instructions executed
sim_total_refs             39005166 # total number of loads and stores executed
sim_total_loads            27138656 # total number of loads executed
sim_total_stores       11866510.0000 # total number of stores executed
sim_total_branches          8691668 # total number of branches executed
sim_cycle                  56798863 # total simulation time in cycles
sim_IPC                      1.7606 # instructions per cycle
sim_CPI                      0.5680 # cycles per instruction
sim_exec_BW                  1.7606 # total instructions (mis-spec + committed) per cycle
sim_IPB                     11.5053 # instruction per branch
IFQ_count                 224177774 # cumulative IFQ occupancy
IFQ_fcount                 56034694 # cumulative IFQ full count
ifq_occupancy                3.9469 # avg IFQ occupancy (insn's)
ifq_rate                     1.7606 # avg IFQ dispatch rate (insn/cycle)
ifq_latency                  2.2418 # avg IFQ occupant latency (cycle's)
ifq_full                     0.9865 # fraction of time (cycle's) IFQ was full
RUU_count                 792677631 # cumulative RUU occupancy
RUU_fcount                 26907129 # cumulative RUU full count
ruu_occupancy               13.9559 # avg RUU occupancy (insn's)
ruu_rate                     1.7606 # avg RUU dispatch rate (insn/cycle)
ruu_latency                  7.9268 # avg RUU occupant latency (cycle's)
ruu_full                     0.4737 # fraction of time (cycle's) RUU was full
LSQ_count                 304437170 # cumulative LSQ occupancy
LSQ_fcount                 18065568 # cumulative LSQ full count
lsq_occupancy                5.3599 # avg LSQ occupancy (insn's)
lsq_rate                     1.7606 # avg LSQ dispatch rate (insn/cycle)
lsq_latency                  3.0444 # avg LSQ occupant latency (cycle's)
lsq_full                     0.3181 # fraction of time (cycle's) LSQ was full
sim_slip                 1236119888 # total number of slip cycles
avg_sim_slip                12.3612 # the average slip between issue and retirement
il1.accesses              110213944 # total number of accesses
il1.hits                  110175151 # total number of hits
il1.misses                    38793 # total number of misses
il1.replacements              38537 # total number of replacements
il1.writebacks                    0 # total number of writebacks
il1.invalidations                 0 # total number of invalidations
il1.miss_rate                0.0004 # miss rate (i.e., misses/ref)
il1.repl_rate                0.0003 # replacement rate (i.e., repls/ref)
il1.wb_rate                  0.0000 # writeback rate (i.e., wrbks/ref)
il1.inv_rate                 0.0000 # invalidation rate (i.e., invs/ref)
dl1.accesses               38444133 # total number of accesses
dl1.hits                   38179322 # total number of hits
dl1.misses                   264811 # total number of misses
dl1.replacements             264555 # total number of replacements
dl1.writebacks               204468 # total number of writebacks
dl1.invalidations                 0 # total number of invalidations
dl1.miss_rate                0.0069 # miss rate (i.e., misses/ref)
dl1.repl_rate                0.0069 # replacement rate (i.e., repls/ref)
dl1.wb_rate                  0.0053 # writeback rate (i.e., wrbks/ref)
dl1.inv_rate                 0.0000 # invalidation rate (i.e., invs/ref)
dl2.accesses                 508072 # total number of accesses
dl2.hits                     337788 # total number of hits
dl2.misses                   170284 # total number of misses
dl2.replacements             168236 # total number of replacements
dl2.writebacks               153934 # total number of writebacks
dl2.invalidations                 0 # total number of invalidations
dl2.miss_rate                0.3352 # miss rate (i.e., misses/ref)
dl2.repl_rate                0.3311 # replacement rate (i.e., repls/ref)
dl2.wb_rate                  0.3030 # writeback rate (i.e., wrbks/ref)
dl2.inv_rate                 0.0000 # invalidation rate (i.e., invs/ref)
itlb.accesses             110213944 # total number of accesses
itlb.hits                 110213891 # total number of hits
itlb.misses                      53 # total number of misses
itlb.replacements                 2 # total number of replacements
itlb.writebacks                   0 # total number of writebacks
itlb.invalidations                0 # total number of invalidations
itlb.miss_rate               0.0000 # miss rate (i.e., misses/ref)
itlb.repl_rate               0.0000 # replacement rate (i.e., repls/ref)
itlb.wb_rate                 0.0000 # writeback rate (i.e., wrbks/ref)
itlb.inv_rate                0.0000 # invalidation rate (i.e., invs/ref)
dtlb.accesses              39005163 # total number of accesses
dtlb.hits                  38960851 # total number of hits
dtlb.misses                   44312 # total number of misses
dtlb.replacements             44184 # total number of replacements
dtlb.writebacks                   0 # total number of writebacks
dtlb.invalidations                0 # total number of invalidations
dtlb.miss_rate               0.0011 # miss rate (i.e., misses/ref)
dtlb.repl_rate               0.0011 # replacement rate (i.e., repls/ref)
dtlb.wb_rate                 0.0000 # writeback rate (i.e., wrbks/ref)
dtlb.inv_rate                0.0000 # invalidation rate (i.e., invs/ref)
rename_power           23739964.4156 # total power usage of rename unit
bpred_power            189508754.1080 # total power usage of bpred unit
window_power           125202836.6128 # total power usage of instruction window
lsq_power              54707528.2096 # total power usage of load/store queue
regfile_power          202912353.5708 # total power usage of arch. regfile
icache_power           172246133.6505 # total power usage of icache
dcache_power           365710599.9093 # total power usage of dcache
dcache2_power          176245552.4444 # total power usage of dcache2
alu_power              1075837228.3687 # total power usage of alu
falu_power             811147116.0416 # total power usage of falu
resultbus_power        130497823.5996 # total power usage of resultbus
clock_power            1551355756.9941 # total power usage of clock
avg_rename_power             0.4180 # avg power usage of rename unit
avg_bpred_power              3.3365 # avg power usage of bpred unit
avg_window_power             2.2043 # avg power usage of instruction window
avg_lsq_power                0.9632 # avg power usage of lsq
avg_regfile_power            3.5725 # avg power usage of arch. regfile
avg_icache_power             3.0326 # avg power usage of icache
avg_dcache_power             6.4387 # avg power usage of dcache
avg_dcache2_power            3.1030 # avg power usage of dcache2
avg_alu_power               18.9412 # avg power usage of alu
avg_falu_power              14.2810 # avg power usage of falu
avg_resultbus_power          2.2975 # avg power usage of resultbus
avg_clock_power             27.3131 # avg power usage of clock
fetch_stage_power      361754887.7585 # total power usage of fetch stage
dispatch_stage_power   23739964.4156 # total power usage of dispatch stage
issue_stage_power      1928201569.1444 # total power usage of issue stage
avg_fetch_power              6.3691 # average power of fetch unit per cycle
avg_dispatch_power           0.4180 # average power of dispatch unit per cycle
avg_issue_power             33.9479 # average power of issue unit per cycle
total_power            4067964531.8834 # total power per cycle
avg_total_power_cycle       71.6205 # average total power per cycle
avg_total_power_cycle_nofp_nod2      54.2365 # average total power per cycle
avg_total_power_insn        40.6796 # average total power per insn
avg_total_power_insn_nofp_nod2      30.8057 # average total power per insn
rename_power_cc1       15499126.9999 # total power usage of rename unit_cc1
bpred_power_cc1              0.0000 # total power usage of bpred unit_cc1
window_power_cc1       99606693.2289 # total power usage of instruction window_cc1
lsq_power_cc1          13932721.6475 # total power usage of lsq_cc1
regfile_power_cc1      119303455.7177 # total power usage of arch. regfile_cc1
icache_power_cc1       112530463.6327 # total power usage of icache_cc1
dcache_power_cc1       162600379.8730 # total power usage of dcache_cc1
dcache2_power_cc1       936076.5543 # total power usage of dcache2_cc1
alu_power_cc1          320969464.2576 # total power usage of alu_cc1
resultbus_power_cc1    92496650.2801 # total power usage of resultbus_cc1
clock_power_cc1        483936416.7443 # total power usage of clock_cc1
avg_rename_power_cc1         0.2729 # avg power usage of rename unit_cc1
avg_bpred_power_cc1          0.0000 # avg power usage of bpred unit_cc1
avg_window_power_cc1         1.7537 # avg power usage of instruction window_cc1
avg_lsq_power_cc1            0.2453 # avg power usage of lsq_cc1
avg_regfile_power_cc1        2.1005 # avg power usage of arch. regfile_cc1
avg_icache_power_cc1         1.9812 # avg power usage of icache_cc1
avg_dcache_power_cc1         2.8627 # avg power usage of dcache_cc1
avg_dcache2_power_cc1        0.0165 # avg power usage of dcache2_cc1
avg_alu_power_cc1            5.6510 # avg power usage of alu_cc1
avg_resultbus_power_cc1       1.6285 # avg power usage of resultbus_cc1
avg_clock_power_cc1          8.5202 # avg power usage of clock_cc1
fetch_stage_power_cc1  112530463.6327 # total power usage of fetch stage_cc1
dispatch_stage_power_cc1 15499126.9999 # total power usage of dispatch stage_cc1
issue_stage_power_cc1  690541985.8414 # total power usage of issue stage_cc1
avg_fetch_power_cc1          1.9812 # average power of fetch unit per cycle_cc1
avg_dispatch_power_cc1       0.2729 # average power of dispatch unit per cycle_cc1
avg_issue_power_cc1         12.1577 # average power of issue unit per cycle_cc1
total_power_cycle_cc1  1421811448.9361 # total power per cycle_cc1
avg_total_power_cycle_cc1      25.0324 # average total power per cycle_cc1
avg_total_power_insn_cc1      14.2181 # average total power per insn_cc1
rename_power_cc2       10449137.1669 # total power usage of rename unit_cc2
bpred_power_cc2              0.0000 # total power usage of bpred unit_cc2
window_power_cc2       84055439.4015 # total power usage of instruction window_cc2
lsq_power_cc2          9644685.7321 # total power usage of lsq_cc2
regfile_power_cc2      44442351.9982 # total power usage of arch. regfile_cc2
icache_power_cc2       112530463.6327 # total power usage of icache_cc2
dcache_power_cc2       123765038.5472 # total power usage of dcache_cc2
dcache2_power_cc2       788267.8073 # total power usage of dcache2_cc2
alu_power_cc2          148664191.8041 # total power usage of alu_cc2
resultbus_power_cc2    63782110.5592 # total power usage of resultbus_cc2
clock_power_cc2        313846910.4645 # total power usage of clock_cc2
avg_rename_power_cc2         0.1840 # avg power usage of rename unit_cc2
avg_bpred_power_cc2          0.0000 # avg power usage of bpred unit_cc2
avg_window_power_cc2         1.4799 # avg power usage of instruction window_cc2
avg_lsq_power_cc2            0.1698 # avg power usage of instruction lsq_cc2
avg_regfile_power_cc2        0.7825 # avg power usage of arch. regfile_cc2
avg_icache_power_cc2         1.9812 # avg power usage of icache_cc2
avg_dcache_power_cc2         2.1790 # avg power usage of dcache_cc2
avg_dcache2_power_cc2        0.0139 # avg power usage of dcache2_cc2
avg_alu_power_cc2            2.6174 # avg power usage of alu_cc2
avg_resultbus_power_cc2       1.1229 # avg power usage of resultbus_cc2
avg_clock_power_cc2          5.5256 # avg power usage of clock_cc2
fetch_stage_power_cc2  112530463.6327 # total power usage of fetch stage_cc2
dispatch_stage_power_cc2 10449137.1669 # total power usage of dispatch stage_cc2
issue_stage_power_cc2  430699733.8514 # total power usage of issue stage_cc2
avg_fetch_power_cc2          1.9812 # average power of fetch unit per cycle_cc2
avg_dispatch_power_cc2       0.1840 # average power of dispatch unit per cycle_cc2
avg_issue_power_cc2          7.5829 # average power of issue unit per cycle_cc2
total_power_cycle_cc2  911968597.1137 # total power per cycle_cc2
avg_total_power_cycle_cc2      16.0561 # average total power per cycle_cc2
avg_total_power_insn_cc2       9.1197 # average total power per insn_cc2
rename_power_cc3       11273220.9054 # total power usage of rename unit_cc3
bpred_power_cc3        18950875.4172 # total power usage of bpred unit_cc3
window_power_cc3       86536241.7751 # total power usage of instruction window_cc3
lsq_power_cc3          13679001.6413 # total power usage of lsq_cc3
regfile_power_cc3      51081024.4020 # total power usage of arch. regfile_cc3
icache_power_cc3       118502030.6086 # total power usage of icache_cc3
dcache_power_cc3       144813246.4748 # total power usage of dcache_cc3
dcache2_power_cc3      18319664.8706 # total power usage of dcache2_cc3
alu_power_cc3          224150967.8899 # total power usage of alu_cc3
resultbus_power_cc3    67035695.0596 # total power usage of resultbus_cc3
clock_power_cc3        419871105.5950 # total power usage of clock_cc3
avg_rename_power_cc3         0.1985 # avg power usage of rename unit_cc3
avg_bpred_power_cc3          0.3336 # avg power usage of bpred unit_cc3
avg_window_power_cc3         1.5236 # avg power usage of instruction window_cc3
avg_lsq_power_cc3            0.2408 # avg power usage of instruction lsq_cc3
avg_regfile_power_cc3        0.8993 # avg power usage of arch. regfile_cc3
avg_icache_power_cc3         2.0863 # avg power usage of icache_cc3
avg_dcache_power_cc3         2.5496 # avg power usage of dcache_cc3
avg_dcache2_power_cc3        0.3225 # avg power usage of dcache2_cc3
avg_alu_power_cc3            3.9464 # avg power usage of alu_cc3
avg_resultbus_power_cc3       1.1802 # avg power usage of resultbus_cc3
avg_clock_power_cc3          7.3922 # avg power usage of clock_cc3
fetch_stage_power_cc3  137452906.0258 # total power usage of fetch stage_cc3
dispatch_stage_power_cc3 11273220.9054 # total power usage of dispatch stage_cc3
issue_stage_power_cc3  554534817.7113 # total power usage of issue stage_cc3
avg_fetch_power_cc3          2.4200 # average power of fetch unit per cycle_cc3
avg_dispatch_power_cc3       0.1985 # average power of dispatch unit per cycle_cc3
avg_issue_power_cc3          9.7631 # average power of issue unit per cycle_cc3
total_power_cycle_cc3  1174213074.6395 # total power per cycle_cc3
avg_total_power_cycle_cc3      20.6732 # average total power per cycle_cc3
avg_total_power_insn_cc3      11.7421 # average total power per insn_cc3
total_rename_access       100000000 # total number accesses of rename unit
total_bpred_access                0 # total number accesses of bpred unit
total_window_access       401118851 # total number accesses of instruction window
total_lsq_access           39566193 # total number accesses of load/store queue
total_regfile_access      172232913 # total number accesses of arch. regfile
total_icache_access       110213944 # total number accesses of icache
total_dcache_access        38444133 # total number accesses of dcache
total_dcache2_access         508072 # total number accesses of dcache2
total_alu_access           99864438 # total number accesses of alu
total_resultbus_access    118446975 # total number accesses of resultbus
avg_rename_access            1.7606 # avg number accesses of rename unit
avg_bpred_access             0.0000 # avg number accesses of bpred unit
avg_window_access            7.0621 # avg number accesses of instruction window
avg_lsq_access               0.6966 # avg number accesses of lsq
avg_regfile_access           3.0323 # avg number accesses of arch. regfile
avg_icache_access            1.9404 # avg number accesses of icache
avg_dcache_access            0.6768 # avg number accesses of dcache
avg_dcache2_access           0.0089 # avg number accesses of dcache2
avg_alu_access               1.7582 # avg number accesses of alu
avg_resultbus_access         2.0854 # avg number accesses of resultbus
max_rename_access                 4 # max number accesses of rename unit
max_bpred_access                  0 # max number accesses of bpred unit
max_window_access                17 # max number accesses of instruction window
max_lsq_access                    6 # max number accesses of load/store queue
max_regfile_access               12 # max number accesses of arch. regfile
max_icache_access                 4 # max number accesses of icache
max_dcache_access                 4 # max number accesses of dcache
max_dcache2_access                5 # max number accesses of dcache2
max_alu_access                    4 # max number accesses of alu
max_resultbus_access              8 # max number accesses of resultbus
max_cycle_power_cc1         55.2865 # maximum cycle power usage of cc1
max_cycle_power_cc2         35.7565 # maximum cycle power usage of cc2
max_cycle_power_cc3         37.7510 # maximum cycle power usage of cc3
sim_invalid_addrs                 0 # total non-speculative bogus addresses seen (debug var)
ld_text_base           0x0120000000 # program text (code) segment base
ld_text_size                 917504 # program text (code) size in bytes
ld_data_base           0x0140000000 # program initialized data segment base
ld_data_size                  91168 # program init'ed `.data' and uninit'ed `.bss' size in bytes
ld_stack_base          0x011ff9b000 # program stack segment base (highest address in stack)
ld_stack_size                 16384 # program initial stack size
ld_prog_entry          0x0120073d5c # program entry point (initial PC)
ld_environ_base        0x011ff96df0 # program environment base address address
ld_target_big_endian              0 # target executable endian-ness, non-zero if big endian
mem.page_count                 1310 # total number of pages allocated
mem.page_mem                 10480k # total size of memory pages allocated
mem.ptab_misses                1843 # total first level page table misses
mem.ptab_accesses         668357850 # total page table accesses
mem.ptab_miss_rate           0.0000 # first level page table miss rate

