sim-outorder: SimpleScalar/Alpha Tool Set version 3.0 of August, 2003.
Copyright (c) 1994-2003 by Todd M. Austin, Ph.D. and SimpleScalar, LLC.
All Rights Reserved. This version of SimpleScalar is licensed for academic
non-commercial use.  No portion of this work may be used by any commercial
entity, or for any commercial purpose, without the prior written permission
of SimpleScalar, LLC (info@simplescalar.com).


Processor Parameters:
Issue Width: 4
Window Size: 16
Number of Virtual Registers: 32
Number of Physical Registers: 16
Datapath Width: 64
Total Power Consumption: 73.6205
Branch Predictor Power Consumption: 3.33649  (4.66%)
 branch target buffer power (W): 2.49493
 local predict power (W): 0.574771
 global predict power (W): 0.0996078
 chooser power (W): 0.0702439
 RAS power (W): 0.0969383
Rename Logic Power Consumption: 0.417965  (0.584%)
 Instruction Decode Power (W): 0.0159915
 RAT decode_power (W): 0.113514
 RAT wordline_power (W): 0.0307815
 RAT bitline_power (W): 0.246771
 DCL Comparators (W): 0.0109075
Instruction Window Power Consumption: 2.20432  (3.08%)
 tagdrive (W): 0.0943488
 tagmatch (W): 0.033695
 Selection Logic (W): 0.0134217
 decode_power (W): 0.0532503
 wordline_power (W): 0.0844643
 bitline_power (W): 1.92514
Load/Store Queue Power Consumption: 0.96318  (1.34%)
 tagdrive (W): 0.457232
 tagmatch (W): 0.100774
 decode_power (W): 0.00799577
 wordline_power (W): 0.0150119
 bitline_power (W): 0.382166
Arch. Register File Power Consumption: 3.57247  (4.99%)
 decode_power (W): 0.113514
 wordline_power (W): 0.0844643
 bitline_power (W): 3.37449
Result Bus Power Consumption: 2.29754  (3.21%)
Total Clock Power: 27.3131  (38.1%)
Int ALU Power: 4.66013  (6.51%)
FP ALU Power: 14.281  (19.9%)
Instruction Cache Power Consumption: 2.76773  (3.86%)
 decode_power (W): 0.151353
 wordline_power (W): 0.180479
 bitline_power (W): 1.42251
 senseamp_power (W): 0.768
 tagarray_power (W): 0.245382
Itlb_power (W): 0.264834 (0.37%)
Data Cache Power Consumption: 5.53546  (7.73%)
 decode_power (W): 0.302705
 wordline_power (W): 0.360958
 bitline_power (W): 2.84503
 senseamp_power (W): 1.536
 tagarray_power (W): 0.490764
Dtlb_power (W): 0.903238 (1.26%)
Level 2 Cache Power Consumption: 3.10298 (4.33%)
 decode_power (W): 0.19487
 wordline_power (W): 0.0430878
 bitline_power (W): 1.77274
 senseamp_power (W): 0.192
 tagarray_power (W): 0.900275
sim: loading EIO file: ../benchmarks/183.equake.spec_ref.eio.gz
sim: command line: ./sim-outorder -config ../configs/current.config ../benchmarks/183.equake.spec_ref.eio.gz 

sim: simulation started @ Mon Nov 23 21:09:31 2015, options follow:

sim-outorder: This simulator implements a very detailed out-of-order issue
superscalar processor with a two-level memory system and speculative
execution support.  This simulator is a performance simulator, tracking the
latency of all pipeline operations.

# -config                     # load configuration from a file
# -dumpconfig                 # dump configuration to a file
# -h                    false # print help message    
# -v                    false # verbose operation     
# -d                    false # enable debug message  
# -i                    false # start in Dlite debugger
-seed                       1 # random number generator seed (0 for timer seed)
# -q                    false # initialize and terminate immediately
# -chkpt               <null> # restore EIO trace execution from <fname>
# -redir:sim     ../results/14_01_ugh2/183.equake.spec_ref.eio.gz.out # redirect simulator output to file (non-interactive only)
# -redir:prog       /dev/null # redirect simulated program output to file
-nice                       0 # simulator scheduling priority
-freq            600000000.0000 # frequency             
-max:inst           100000000 # maximum number of inst's to execute
-fastfwd                    0 # number of insts skipped before timing starts
# -ptrace              <null> # generate pipetrace, i.e., <fname|stdout|stderr> <range>
-fetch:ifqsize              4 # instruction fetch queue size (in insts)
-fetch:mplat               15 # extra branch mis-prediction latency
-fetch:speed                1 # speed of front-end of machine relative to execution core
-bpred                perfect # branch predictor type {nottaken|taken|perfect|bimod|2lev|comb}
-bpred:bimod     2048 # bimodal predictor config (<table size>)
-bpred:2lev      1 16384 4 0 # 2-level predictor config (<l1size> <l2size> <hist_size> <xor>)
-bpred:comb      1024 # combining predictor config (<meta_table_size>)
-bpred:ras                  8 # return address stack size (0 for no return stack)
-bpred:btb       512 4 # BTB config (<num_sets> <associativity>)
# -bpred:spec_update       <null> # speculative predictors update in {ID|WB} (default non-spec)
-decode:width               4 # instruction decode B/W (insts/cycle)
-issue:width                4 # instruction issue B/W (insts/cycle)
-issue:inorder          false # run pipeline with in-order issue
-issue:wrongpath         true # issue instructions down wrong execution paths
-commit:width               4 # instruction commit B/W (insts/cycle)
-ruu:size                  16 # register update unit (RUU) size
-lsq:size                   8 # load/store queue (LSQ) size
-cache:dl1       dl1:32:64:8:f # l1 data cache config, i.e., {<config>|none}
-cache:dl1lat               1 # l1 data cache hit latency (in cycles)
-cache:dl2       dl2:256:64:8:f # l2 data cache config, i.e., {<config>|none}
-cache:dl2lat               2 # l2 data cache hit latency (in cycles)
-cache:il1       il1:32:64:8:f # l1 inst cache config, i.e., {<config>|dl1|dl2|none}
-cache:il1lat               1 # l1 instruction cache hit latency (in cycles)
-cache:il2                dl2 # l2 instruction cache config, i.e., {<config>|dl2|none}
-cache:il2lat               2 # l2 instruction cache hit latency (in cycles)
-cache:flush            false # flush caches on system calls
-cache:icompress        false # convert 64-bit inst addresses to 32-bit inst equivalents
-mem:lat         103 1 # memory access latency (<first_chunk> <inter_chunk>)
-mem:width                  8 # memory access bus width (in bytes)
-tlb:itlb        itlb:16:4096:4:l # instruction TLB config, i.e., {<config>|none}
-tlb:dtlb        dtlb:32:4096:4:l # data TLB config, i.e., {<config>|none}
-tlb:lat                   30 # inst/data TLB miss latency (in cycles)
-res:ialu                   4 # total number of integer ALU's available
-res:imult                  1 # total number of integer multiplier/dividers available
-res:memport                2 # total number of memory system ports available (to CPU)
-res:fpalu                  4 # total number of floating point ALU's available
-res:fpmult                 1 # total number of floating point multiplier/dividers available
# -pcstat              <null> # profile stat(s) against text addr's (mult uses ok)
-bugcompat              false # operate in backward-compatible bugs mode (for testing only)

  Pipetrace range arguments are formatted as follows:

    {{@|#}<start>}:{{@|#|+}<end>}

  Both ends of the range are optional, if neither are specified, the entire
  execution is traced.  Ranges that start with a `@' designate an address
  range to be traced, those that start with an `#' designate a cycle count
  range.  All other range values represent an instruction count range.  The
  second argument, if specified with a `+', indicates a value relative
  to the first argument, e.g., 1000:+100 == 1000:1100.  Program symbols may
  be used in all contexts.

    Examples:   -ptrace FOO.trc #0:#1000
                -ptrace BAR.trc @2000:
                -ptrace BLAH.trc :1500
                -ptrace UXXE.trc :
                -ptrace FOOBAR.trc @main:+278

  Branch predictor configuration examples for 2-level predictor:
    Configurations:   N, M, W, X
      N   # entries in first level (# of shift register(s))
      W   width of shift register(s)
      M   # entries in 2nd level (# of counters, or other FSM)
      X   (yes-1/no-0) xor history and address for 2nd level index
    Sample predictors:
      GAg     : 1, W, 2^W, 0
      GAp     : 1, W, M (M > 2^W), 0
      PAg     : N, W, 2^W, 0
      PAp     : N, W, M (M == 2^(N+W)), 0
      gshare  : 1, W, 2^W, 1
  Predictor `comb' combines a bimodal and a 2-level predictor.

  The cache config parameter <config> has the following format:

    <name>:<nsets>:<bsize>:<assoc>:<repl>

    <name>   - name of the cache being defined
    <nsets>  - number of sets in the cache
    <bsize>  - block size of the cache
    <assoc>  - associativity of the cache
    <repl>   - block replacement strategy, 'l'-LRU, 'f'-FIFO, 'r'-random

    Examples:   -cache:dl1 dl1:4096:32:1:l
                -dtlb dtlb:128:4096:32:r

  Cache levels can be unified by pointing a level of the instruction cache
  hierarchy at the data cache hiearchy using the "dl1" and "dl2" cache
  configuration arguments.  Most sensible combinations are supported, e.g.,

    A unified l2 cache (il2 is pointed at dl2):
      -cache:il1 il1:128:64:1:l -cache:il2 dl2
      -cache:dl1 dl1:256:32:1:l -cache:dl2 ul2:1024:64:2:l

    Or, a fully unified cache hierarchy (il1 pointed at dl1):
      -cache:il1 dl1
      -cache:dl1 ul1:256:32:1:l -cache:dl2 ul2:1024:64:2:l



sim: ** starting performance simulation **

sim: ** simulation statistics **
sim_num_insn              100000002 # total number of instructions committed
sim_num_refs               45231619 # total number of loads and stores committed
sim_num_loads              40733803 # total number of loads committed
sim_num_stores         4497816.0000 # total number of stores committed
sim_num_branches            3673861 # total number of branches committed
sim_elapsed_time                177 # total simulation time in seconds
sim_inst_rate           564971.7627 # simulation speed (in insts/sec)
sim_total_insn            100000002 # total number of instructions executed
sim_total_refs             45231619 # total number of loads and stores executed
sim_total_loads            40733803 # total number of loads executed
sim_total_stores       4497816.0000 # total number of stores executed
sim_total_branches          3673861 # total number of branches executed
sim_cycle                 283145647 # total simulation time in cycles
sim_IPC                      0.3532 # instructions per cycle
sim_CPI                      2.8315 # cycles per instruction
sim_exec_BW                  0.3532 # total instructions (mis-spec + committed) per cycle
sim_IPB                     27.2193 # instruction per branch
IFQ_count                1132519846 # cumulative IFQ occupancy
IFQ_fcount                283129570 # cumulative IFQ full count
ifq_occupancy                3.9998 # avg IFQ occupancy (insn's)
ifq_rate                     0.3532 # avg IFQ dispatch rate (insn/cycle)
ifq_latency                 11.3252 # avg IFQ occupant latency (cycle's)
ifq_full                     0.9999 # fraction of time (cycle's) IFQ was full
RUU_count                3799661012 # cumulative RUU occupancy
RUU_fcount                140068353 # cumulative RUU full count
ruu_occupancy               13.4195 # avg RUU occupancy (insn's)
ruu_rate                     0.3532 # avg RUU dispatch rate (insn/cycle)
ruu_latency                 37.9966 # avg RUU occupant latency (cycle's)
ruu_full                     0.4947 # fraction of time (cycle's) RUU was full
LSQ_count                2038979842 # cumulative LSQ occupancy
LSQ_fcount                142196771 # cumulative LSQ full count
lsq_occupancy                7.2012 # avg LSQ occupancy (insn's)
lsq_rate                     0.3532 # avg LSQ dispatch rate (insn/cycle)
lsq_latency                 20.3898 # avg LSQ occupant latency (cycle's)
lsq_full                     0.5022 # fraction of time (cycle's) LSQ was full
sim_slip                 5983871315 # total number of slip cycles
avg_sim_slip                59.8387 # the average slip between issue and retirement
il1.accesses              104591026 # total number of accesses
il1.hits                  104590880 # total number of hits
il1.misses                      146 # total number of misses
il1.replacements                  0 # total number of replacements
il1.writebacks                    0 # total number of writebacks
il1.invalidations                 0 # total number of invalidations
il1.miss_rate                0.0000 # miss rate (i.e., misses/ref)
il1.repl_rate                0.0000 # replacement rate (i.e., repls/ref)
il1.wb_rate                  0.0000 # writeback rate (i.e., wrbks/ref)
il1.inv_rate                 0.0000 # invalidation rate (i.e., invs/ref)
dl1.accesses               44417264 # total number of accesses
dl1.hits                   40333241 # total number of hits
dl1.misses                  4084023 # total number of misses
dl1.replacements            4083767 # total number of replacements
dl1.writebacks               430191 # total number of writebacks
dl1.invalidations                 0 # total number of invalidations
dl1.miss_rate                0.0919 # miss rate (i.e., misses/ref)
dl1.repl_rate                0.0919 # replacement rate (i.e., repls/ref)
dl1.wb_rate                  0.0097 # writeback rate (i.e., wrbks/ref)
dl1.inv_rate                 0.0000 # invalidation rate (i.e., invs/ref)
dl2.accesses                4514360 # total number of accesses
dl2.hits                    1686833 # total number of hits
dl2.misses                  2827527 # total number of misses
dl2.replacements            2825479 # total number of replacements
dl2.writebacks               331249 # total number of writebacks
dl2.invalidations                 0 # total number of invalidations
dl2.miss_rate                0.6263 # miss rate (i.e., misses/ref)
dl2.repl_rate                0.6259 # replacement rate (i.e., repls/ref)
dl2.wb_rate                  0.0734 # writeback rate (i.e., wrbks/ref)
dl2.inv_rate                 0.0000 # invalidation rate (i.e., invs/ref)
itlb.accesses             104591026 # total number of accesses
itlb.hits                 104591020 # total number of hits
itlb.misses                       6 # total number of misses
itlb.replacements                 0 # total number of replacements
itlb.writebacks                   0 # total number of writebacks
itlb.invalidations                0 # total number of invalidations
itlb.miss_rate               0.0000 # miss rate (i.e., misses/ref)
itlb.repl_rate               0.0000 # replacement rate (i.e., repls/ref)
itlb.wb_rate                 0.0000 # writeback rate (i.e., wrbks/ref)
itlb.inv_rate                0.0000 # invalidation rate (i.e., invs/ref)
dtlb.accesses              45231619 # total number of accesses
dtlb.hits                  45184613 # total number of hits
dtlb.misses                   47006 # total number of misses
dtlb.replacements             46878 # total number of replacements
dtlb.writebacks                   0 # total number of writebacks
dtlb.invalidations                0 # total number of invalidations
dtlb.miss_rate               0.0010 # miss rate (i.e., misses/ref)
dtlb.repl_rate               0.0010 # replacement rate (i.e., repls/ref)
dtlb.wb_rate                 0.0000 # writeback rate (i.e., wrbks/ref)
dtlb.inv_rate                0.0000 # invalidation rate (i.e., invs/ref)
rename_power           118345108.1409 # total power usage of rename unit
bpred_power            944712198.1174 # total power usage of bpred unit
window_power           624143450.0272 # total power usage of instruction window
lsq_power              272720219.4960 # total power usage of load/store queue
regfile_power          1011529923.3146 # total power usage of arch. regfile
icache_power           858657030.2012 # total power usage of icache
dcache_power           1823088670.8905 # total power usage of dcache
dcache2_power          878594370.8417 # total power usage of dcache2
alu_power              5363111379.1040 # total power usage of alu
falu_power             4043615714.9020 # total power usage of falu
resultbus_power        650539268.0504 # total power usage of resultbus
clock_power            7733599032.6535 # total power usage of clock
avg_rename_power             0.4180 # avg power usage of rename unit
avg_bpred_power              3.3365 # avg power usage of bpred unit
avg_window_power             2.2043 # avg power usage of instruction window
avg_lsq_power                0.9632 # avg power usage of lsq
avg_regfile_power            3.5725 # avg power usage of arch. regfile
avg_icache_power             3.0326 # avg power usage of icache
avg_dcache_power             6.4387 # avg power usage of dcache
avg_dcache2_power            3.1030 # avg power usage of dcache2
avg_alu_power               18.9412 # avg power usage of alu
avg_falu_power              14.2810 # avg power usage of falu
avg_resultbus_power          2.2975 # avg power usage of resultbus
avg_clock_power             27.3131 # avg power usage of clock
fetch_stage_power      1803369228.3185 # total power usage of fetch stage
dispatch_stage_power   118345108.1409 # total power usage of dispatch stage
issue_stage_power      9612197358.4098 # total power usage of issue stage
avg_fetch_power              6.3691 # average power of fetch unit per cycle
avg_dispatch_power           0.4180 # average power of dispatch unit per cycle
avg_issue_power             33.9479 # average power of issue unit per cycle
total_power            20279040650.8374 # total power per cycle
avg_total_power_cycle       71.6205 # average total power per cycle
avg_total_power_cycle_nofp_nod2      54.2365 # average total power per cycle
avg_total_power_insn       202.7904 # average total power per insn
avg_total_power_insn_nofp_nod2     153.5683 # average total power per insn
rename_power_cc1       14897981.4513 # total power usage of rename unit_cc1
bpred_power_cc1              0.0000 # total power usage of bpred unit_cc1
window_power_cc1       132883983.0181 # total power usage of instruction window_cc1
lsq_power_cc1          17848107.9827 # total power usage of lsq_cc1
regfile_power_cc1      128072286.4689 # total power usage of arch. regfile_cc1
icache_power_cc1       108092947.4644 # total power usage of icache_cc1
dcache_power_cc1       202412435.9553 # total power usage of dcache_cc1
dcache2_power_cc1      11594565.9410 # total power usage of dcache2_cc1
alu_power_cc1          550705853.4183 # total power usage of alu_cc1
resultbus_power_cc1    119372988.9386 # total power usage of resultbus_cc1
clock_power_cc1        816405258.4596 # total power usage of clock_cc1
avg_rename_power_cc1         0.0526 # avg power usage of rename unit_cc1
avg_bpred_power_cc1          0.0000 # avg power usage of bpred unit_cc1
avg_window_power_cc1         0.4693 # avg power usage of instruction window_cc1
avg_lsq_power_cc1            0.0630 # avg power usage of lsq_cc1
avg_regfile_power_cc1        0.4523 # avg power usage of arch. regfile_cc1
avg_icache_power_cc1         0.3818 # avg power usage of icache_cc1
avg_dcache_power_cc1         0.7149 # avg power usage of dcache_cc1
avg_dcache2_power_cc1        0.0409 # avg power usage of dcache2_cc1
avg_alu_power_cc1            1.9450 # avg power usage of alu_cc1
avg_resultbus_power_cc1       0.4216 # avg power usage of resultbus_cc1
avg_clock_power_cc1          2.8833 # avg power usage of clock_cc1
fetch_stage_power_cc1  108092947.4644 # total power usage of fetch stage_cc1
dispatch_stage_power_cc1 14897981.4513 # total power usage of dispatch stage_cc1
issue_stage_power_cc1  1034817935.2539 # total power usage of issue stage_cc1
avg_fetch_power_cc1          0.3818 # average power of fetch unit per cycle_cc1
avg_dispatch_power_cc1       0.0526 # average power of dispatch unit per cycle_cc1
avg_issue_power_cc1          3.6547 # average power of issue unit per cycle_cc1
total_power_cycle_cc1  2102286409.0981 # total power per cycle_cc1
avg_total_power_cycle_cc1       7.4248 # average total power per cycle_cc1
avg_total_power_insn_cc1      21.0229 # average total power per insn_cc1
rename_power_cc2       10449137.3759 # total power usage of rename unit_cc2
bpred_power_cc2              0.0000 # total power usage of bpred unit_cc2
window_power_cc2       92177934.8020 # total power usage of instruction window_cc2
lsq_power_cc2          12317241.0434 # total power usage of lsq_cc2
regfile_power_cc2      48719641.2263 # total power usage of arch. regfile_cc2
icache_power_cc2       108092947.4644 # total power usage of icache_cc2
dcache_power_cc2       142994625.2637 # total power usage of dcache_cc2
dcache2_power_cc2      7003977.1109 # total power usage of dcache2_cc2
alu_power_cc2          199529189.5909 # total power usage of alu_cc2
resultbus_power_cc2    73804941.4589 # total power usage of resultbus_cc2
clock_power_cc2        441419927.0396 # total power usage of clock_cc2
avg_rename_power_cc2         0.0369 # avg power usage of rename unit_cc2
avg_bpred_power_cc2          0.0000 # avg power usage of bpred unit_cc2
avg_window_power_cc2         0.3255 # avg power usage of instruction window_cc2
avg_lsq_power_cc2            0.0435 # avg power usage of instruction lsq_cc2
avg_regfile_power_cc2        0.1721 # avg power usage of arch. regfile_cc2
avg_icache_power_cc2         0.3818 # avg power usage of icache_cc2
avg_dcache_power_cc2         0.5050 # avg power usage of dcache_cc2
avg_dcache2_power_cc2        0.0247 # avg power usage of dcache2_cc2
avg_alu_power_cc2            0.7047 # avg power usage of alu_cc2
avg_resultbus_power_cc2       0.2607 # avg power usage of resultbus_cc2
avg_clock_power_cc2          1.5590 # avg power usage of clock_cc2
fetch_stage_power_cc2  108092947.4644 # total power usage of fetch stage_cc2
dispatch_stage_power_cc2 10449137.3759 # total power usage of dispatch stage_cc2
issue_stage_power_cc2  527827909.2698 # total power usage of issue stage_cc2
avg_fetch_power_cc2          0.3818 # average power of fetch unit per cycle_cc2
avg_dispatch_power_cc2       0.0369 # average power of dispatch unit per cycle_cc2
avg_issue_power_cc2          1.8642 # average power of issue unit per cycle_cc2
total_power_cycle_cc2  1136509562.3761 # total power per cycle_cc2
avg_total_power_cycle_cc2       4.0139 # average total power per cycle_cc2
avg_total_power_insn_cc2      11.3651 # average total power per insn_cc2
rename_power_cc3       20793850.0582 # total power usage of rename unit_cc3
bpred_power_cc3        94471219.6689 # total power usage of bpred unit_cc3
window_power_cc3       140603866.9120 # total power usage of instruction window_cc3
lsq_power_cc3          37781777.2025 # total power usage of lsq_cc3
regfile_power_cc3      135507179.6379 # total power usage of arch. regfile_cc3
icache_power_cc3       183149355.1623 # total power usage of icache_cc3
dcache_power_cc3       305195343.1651 # total power usage of dcache_cc3
dcache2_power_cc3      93714187.0132 # total power usage of dcache2_cc3
alu_power_cc3          680769743.0934 # total power usage of alu_cc3
resultbus_power_cc3    126428380.8447 # total power usage of resultbus_cc3
clock_power_cc3        1131512997.6022 # total power usage of clock_cc3
avg_rename_power_cc3         0.0734 # avg power usage of rename unit_cc3
avg_bpred_power_cc3          0.3336 # avg power usage of bpred unit_cc3
avg_window_power_cc3         0.4966 # avg power usage of instruction window_cc3
avg_lsq_power_cc3            0.1334 # avg power usage of instruction lsq_cc3
avg_regfile_power_cc3        0.4786 # avg power usage of arch. regfile_cc3
avg_icache_power_cc3         0.6468 # avg power usage of icache_cc3
avg_dcache_power_cc3         1.0779 # avg power usage of dcache_cc3
avg_dcache2_power_cc3        0.3310 # avg power usage of dcache2_cc3
avg_alu_power_cc3            2.4043 # avg power usage of alu_cc3
avg_resultbus_power_cc3       0.4465 # avg power usage of resultbus_cc3
avg_clock_power_cc3          3.9962 # avg power usage of clock_cc3
fetch_stage_power_cc3  277620574.8312 # total power usage of fetch stage_cc3
dispatch_stage_power_cc3 20793850.0582 # total power usage of dispatch stage_cc3
issue_stage_power_cc3  1384493298.2309 # total power usage of issue stage_cc3
avg_fetch_power_cc3          0.9805 # average power of fetch unit per cycle_cc3
avg_dispatch_power_cc3       0.0734 # average power of dispatch unit per cycle_cc3
avg_issue_power_cc3          4.8897 # average power of issue unit per cycle_cc3
total_power_cycle_cc3  2949927900.3604 # total power per cycle_cc3
avg_total_power_cycle_cc3      10.4184 # average total power per cycle_cc3
avg_total_power_insn_cc3      29.4993 # average total power per insn_cc3
total_rename_access       100000002 # total number accesses of rename unit
total_bpred_access                0 # total number accesses of bpred unit
total_window_access       426521714 # total number accesses of instruction window
total_lsq_access           46045974 # total number accesses of load/store queue
total_regfile_access      183945550 # total number accesses of arch. regfile
total_icache_access       104591026 # total number accesses of icache
total_dcache_access        44417264 # total number accesses of dcache
total_dcache2_access        4514360 # total number accesses of dcache2
total_alu_access           99999998 # total number accesses of alu
total_resultbus_access    137059937 # total number accesses of resultbus
avg_rename_access            0.3532 # avg number accesses of rename unit
avg_bpred_access             0.0000 # avg number accesses of bpred unit
avg_window_access            1.5064 # avg number accesses of instruction window
avg_lsq_access               0.1626 # avg number accesses of lsq
avg_regfile_access           0.6496 # avg number accesses of arch. regfile
avg_icache_access            0.3694 # avg number accesses of icache
avg_dcache_access            0.1569 # avg number accesses of dcache
avg_dcache2_access           0.0159 # avg number accesses of dcache2
avg_alu_access               0.3532 # avg number accesses of alu
avg_resultbus_access         0.4841 # avg number accesses of resultbus
max_rename_access                 4 # max number accesses of rename unit
max_bpred_access                  0 # max number accesses of bpred unit
max_window_access                16 # max number accesses of instruction window
max_lsq_access                    4 # max number accesses of load/store queue
max_regfile_access               11 # max number accesses of arch. regfile
max_icache_access                 4 # max number accesses of icache
max_dcache_access                 4 # max number accesses of dcache
max_dcache2_access                5 # max number accesses of dcache2
max_alu_access                    4 # max number accesses of alu
max_resultbus_access              7 # max number accesses of resultbus
max_cycle_power_cc1         43.3792 # maximum cycle power usage of cc1
max_cycle_power_cc2         27.1669 # maximum cycle power usage of cc2
max_cycle_power_cc3         31.3948 # maximum cycle power usage of cc3
sim_invalid_addrs                 0 # total non-speculative bogus addresses seen (debug var)
ld_text_base           0x0120000000 # program text (code) segment base
ld_text_size                 253952 # program text (code) size in bytes
ld_data_base           0x0140000000 # program initialized data segment base
ld_data_size                  76704 # program init'ed `.data' and uninit'ed `.bss' size in bytes
ld_stack_base          0x011ff9b000 # program stack segment base (highest address in stack)
ld_stack_size                 16384 # program initial stack size
ld_prog_entry          0x0120013bd4 # program entry point (initial PC)
ld_environ_base        0x011ff967e0 # program environment base address address
ld_target_big_endian              0 # target executable endian-ness, non-zero if big endian
mem.page_count                 6268 # total number of pages allocated
mem.page_mem                 50144k # total size of memory pages allocated
mem.ptab_misses                6274 # total first level page table misses
mem.ptab_accesses        1017234812 # total page table accesses
mem.ptab_miss_rate           0.0000 # first level page table miss rate

