sim-outorder: SimpleScalar/Alpha Tool Set version 3.0 of August, 2003.
Copyright (c) 1994-2003 by Todd M. Austin, Ph.D. and SimpleScalar, LLC.
All Rights Reserved. This version of SimpleScalar is licensed for academic
non-commercial use.  No portion of this work may be used by any commercial
entity, or for any commercial purpose, without the prior written permission
of SimpleScalar, LLC (info@simplescalar.com).


Processor Parameters:
Issue Width: 4
Window Size: 16
Number of Virtual Registers: 32
Number of Physical Registers: 16
Datapath Width: 64
Total Power Consumption: 73.6205
Branch Predictor Power Consumption: 3.33649  (4.66%)
 branch target buffer power (W): 2.49493
 local predict power (W): 0.574771
 global predict power (W): 0.0996078
 chooser power (W): 0.0702439
 RAS power (W): 0.0969383
Rename Logic Power Consumption: 0.417965  (0.584%)
 Instruction Decode Power (W): 0.0159915
 RAT decode_power (W): 0.113514
 RAT wordline_power (W): 0.0307815
 RAT bitline_power (W): 0.246771
 DCL Comparators (W): 0.0109075
Instruction Window Power Consumption: 2.20432  (3.08%)
 tagdrive (W): 0.0943488
 tagmatch (W): 0.033695
 Selection Logic (W): 0.0134217
 decode_power (W): 0.0532503
 wordline_power (W): 0.0844643
 bitline_power (W): 1.92514
Load/Store Queue Power Consumption: 0.96318  (1.34%)
 tagdrive (W): 0.457232
 tagmatch (W): 0.100774
 decode_power (W): 0.00799577
 wordline_power (W): 0.0150119
 bitline_power (W): 0.382166
Arch. Register File Power Consumption: 3.57247  (4.99%)
 decode_power (W): 0.113514
 wordline_power (W): 0.0844643
 bitline_power (W): 3.37449
Result Bus Power Consumption: 2.29754  (3.21%)
Total Clock Power: 27.3131  (38.1%)
Int ALU Power: 4.66013  (6.51%)
FP ALU Power: 14.281  (19.9%)
Instruction Cache Power Consumption: 2.76773  (3.86%)
 decode_power (W): 0.151353
 wordline_power (W): 0.180479
 bitline_power (W): 1.42251
 senseamp_power (W): 0.768
 tagarray_power (W): 0.245382
Itlb_power (W): 0.264834 (0.37%)
Data Cache Power Consumption: 5.53546  (7.73%)
 decode_power (W): 0.302705
 wordline_power (W): 0.360958
 bitline_power (W): 2.84503
 senseamp_power (W): 1.536
 tagarray_power (W): 0.490764
Dtlb_power (W): 0.903238 (1.26%)
Level 2 Cache Power Consumption: 3.10298 (4.33%)
 decode_power (W): 0.19487
 wordline_power (W): 0.0430878
 bitline_power (W): 1.77274
 senseamp_power (W): 0.192
 tagarray_power (W): 0.900275
sim: loading EIO file: ../benchmarks/252.eon.cook-ref.eio.gz
sim: command line: ./sim-outorder -config ../configs/current.config ../benchmarks/252.eon.cook-ref.eio.gz 

sim: simulation started @ Mon Nov 23 21:09:27 2015, options follow:

sim-outorder: This simulator implements a very detailed out-of-order issue
superscalar processor with a two-level memory system and speculative
execution support.  This simulator is a performance simulator, tracking the
latency of all pipeline operations.

# -config                     # load configuration from a file
# -dumpconfig                 # dump configuration to a file
# -h                    false # print help message    
# -v                    false # verbose operation     
# -d                    false # enable debug message  
# -i                    false # start in Dlite debugger
-seed                       1 # random number generator seed (0 for timer seed)
# -q                    false # initialize and terminate immediately
# -chkpt               <null> # restore EIO trace execution from <fname>
# -redir:sim     ../results/14_01_ugh2/252.eon.cook-ref.eio.gz.out # redirect simulator output to file (non-interactive only)
# -redir:prog       /dev/null # redirect simulated program output to file
-nice                       0 # simulator scheduling priority
-freq            600000000.0000 # frequency             
-max:inst           100000000 # maximum number of inst's to execute
-fastfwd                    0 # number of insts skipped before timing starts
# -ptrace              <null> # generate pipetrace, i.e., <fname|stdout|stderr> <range>
-fetch:ifqsize              4 # instruction fetch queue size (in insts)
-fetch:mplat               15 # extra branch mis-prediction latency
-fetch:speed                1 # speed of front-end of machine relative to execution core
-bpred                perfect # branch predictor type {nottaken|taken|perfect|bimod|2lev|comb}
-bpred:bimod     2048 # bimodal predictor config (<table size>)
-bpred:2lev      1 16384 4 0 # 2-level predictor config (<l1size> <l2size> <hist_size> <xor>)
-bpred:comb      1024 # combining predictor config (<meta_table_size>)
-bpred:ras                  8 # return address stack size (0 for no return stack)
-bpred:btb       512 4 # BTB config (<num_sets> <associativity>)
# -bpred:spec_update       <null> # speculative predictors update in {ID|WB} (default non-spec)
-decode:width               4 # instruction decode B/W (insts/cycle)
-issue:width                4 # instruction issue B/W (insts/cycle)
-issue:inorder          false # run pipeline with in-order issue
-issue:wrongpath         true # issue instructions down wrong execution paths
-commit:width               4 # instruction commit B/W (insts/cycle)
-ruu:size                  16 # register update unit (RUU) size
-lsq:size                   8 # load/store queue (LSQ) size
-cache:dl1       dl1:32:64:8:f # l1 data cache config, i.e., {<config>|none}
-cache:dl1lat               1 # l1 data cache hit latency (in cycles)
-cache:dl2       dl2:256:64:8:f # l2 data cache config, i.e., {<config>|none}
-cache:dl2lat               2 # l2 data cache hit latency (in cycles)
-cache:il1       il1:32:64:8:f # l1 inst cache config, i.e., {<config>|dl1|dl2|none}
-cache:il1lat               1 # l1 instruction cache hit latency (in cycles)
-cache:il2                dl2 # l2 instruction cache config, i.e., {<config>|dl2|none}
-cache:il2lat               2 # l2 instruction cache hit latency (in cycles)
-cache:flush            false # flush caches on system calls
-cache:icompress        false # convert 64-bit inst addresses to 32-bit inst equivalents
-mem:lat         103 1 # memory access latency (<first_chunk> <inter_chunk>)
-mem:width                  8 # memory access bus width (in bytes)
-tlb:itlb        itlb:16:4096:4:l # instruction TLB config, i.e., {<config>|none}
-tlb:dtlb        dtlb:32:4096:4:l # data TLB config, i.e., {<config>|none}
-tlb:lat                   30 # inst/data TLB miss latency (in cycles)
-res:ialu                   4 # total number of integer ALU's available
-res:imult                  1 # total number of integer multiplier/dividers available
-res:memport                2 # total number of memory system ports available (to CPU)
-res:fpalu                  4 # total number of floating point ALU's available
-res:fpmult                 1 # total number of floating point multiplier/dividers available
# -pcstat              <null> # profile stat(s) against text addr's (mult uses ok)
-bugcompat              false # operate in backward-compatible bugs mode (for testing only)

  Pipetrace range arguments are formatted as follows:

    {{@|#}<start>}:{{@|#|+}<end>}

  Both ends of the range are optional, if neither are specified, the entire
  execution is traced.  Ranges that start with a `@' designate an address
  range to be traced, those that start with an `#' designate a cycle count
  range.  All other range values represent an instruction count range.  The
  second argument, if specified with a `+', indicates a value relative
  to the first argument, e.g., 1000:+100 == 1000:1100.  Program symbols may
  be used in all contexts.

    Examples:   -ptrace FOO.trc #0:#1000
                -ptrace BAR.trc @2000:
                -ptrace BLAH.trc :1500
                -ptrace UXXE.trc :
                -ptrace FOOBAR.trc @main:+278

  Branch predictor configuration examples for 2-level predictor:
    Configurations:   N, M, W, X
      N   # entries in first level (# of shift register(s))
      W   width of shift register(s)
      M   # entries in 2nd level (# of counters, or other FSM)
      X   (yes-1/no-0) xor history and address for 2nd level index
    Sample predictors:
      GAg     : 1, W, 2^W, 0
      GAp     : 1, W, M (M > 2^W), 0
      PAg     : N, W, 2^W, 0
      PAp     : N, W, M (M == 2^(N+W)), 0
      gshare  : 1, W, 2^W, 1
  Predictor `comb' combines a bimodal and a 2-level predictor.

  The cache config parameter <config> has the following format:

    <name>:<nsets>:<bsize>:<assoc>:<repl>

    <name>   - name of the cache being defined
    <nsets>  - number of sets in the cache
    <bsize>  - block size of the cache
    <assoc>  - associativity of the cache
    <repl>   - block replacement strategy, 'l'-LRU, 'f'-FIFO, 'r'-random

    Examples:   -cache:dl1 dl1:4096:32:1:l
                -dtlb dtlb:128:4096:32:r

  Cache levels can be unified by pointing a level of the instruction cache
  hierarchy at the data cache hiearchy using the "dl1" and "dl2" cache
  configuration arguments.  Most sensible combinations are supported, e.g.,

    A unified l2 cache (il2 is pointed at dl2):
      -cache:il1 il1:128:64:1:l -cache:il2 dl2
      -cache:dl1 dl1:256:32:1:l -cache:dl2 ul2:1024:64:2:l

    Or, a fully unified cache hierarchy (il1 pointed at dl1):
      -cache:il1 dl1
      -cache:dl1 ul1:256:32:1:l -cache:dl2 ul2:1024:64:2:l



sim: ** starting performance simulation **

sim: ** simulation statistics **
sim_num_insn              100000000 # total number of instructions committed
sim_num_refs               45959960 # total number of loads and stores committed
sim_num_loads              29429717 # total number of loads committed
sim_num_stores         16530243.0000 # total number of stores committed
sim_num_branches           11225005 # total number of branches committed
sim_elapsed_time                106 # total simulation time in seconds
sim_inst_rate           943396.2264 # simulation speed (in insts/sec)
sim_total_insn            100000000 # total number of instructions executed
sim_total_refs             45959960 # total number of loads and stores executed
sim_total_loads            29429717 # total number of loads executed
sim_total_stores       16530243.0000 # total number of stores executed
sim_total_branches         11225005 # total number of branches executed
sim_cycle                  52760849 # total simulation time in cycles
sim_IPC                      1.8953 # instructions per cycle
sim_CPI                      0.5276 # cycles per instruction
sim_exec_BW                  1.8953 # total instructions (mis-spec + committed) per cycle
sim_IPB                      8.9087 # instruction per branch
IFQ_count                 205296919 # cumulative IFQ occupancy
IFQ_fcount                 51141136 # cumulative IFQ full count
ifq_occupancy                3.8911 # avg IFQ occupancy (insn's)
ifq_rate                     1.8953 # avg IFQ dispatch rate (insn/cycle)
ifq_latency                  2.0530 # avg IFQ occupant latency (cycle's)
ifq_full                     0.9693 # fraction of time (cycle's) IFQ was full
RUU_count                 713325141 # cumulative RUU occupancy
RUU_fcount                 21165505 # cumulative RUU full count
ruu_occupancy               13.5200 # avg RUU occupancy (insn's)
ruu_rate                     1.8953 # avg RUU dispatch rate (insn/cycle)
ruu_latency                  7.1333 # avg RUU occupant latency (cycle's)
ruu_full                     0.4012 # fraction of time (cycle's) RUU was full
LSQ_count                 302839500 # cumulative LSQ occupancy
LSQ_fcount                 17175954 # cumulative LSQ full count
lsq_occupancy                5.7399 # avg LSQ occupancy (insn's)
lsq_rate                     1.8953 # avg LSQ dispatch rate (insn/cycle)
lsq_latency                  3.0284 # avg LSQ occupant latency (cycle's)
lsq_full                     0.3255 # fraction of time (cycle's) LSQ was full
sim_slip                 1162124469 # total number of slip cycles
avg_sim_slip                11.6212 # the average slip between issue and retirement
il1.accesses              113835639 # total number of accesses
il1.hits                  113211498 # total number of hits
il1.misses                   624141 # total number of misses
il1.replacements             623885 # total number of replacements
il1.writebacks                    0 # total number of writebacks
il1.invalidations                 0 # total number of invalidations
il1.miss_rate                0.0055 # miss rate (i.e., misses/ref)
il1.repl_rate                0.0055 # replacement rate (i.e., repls/ref)
il1.wb_rate                  0.0000 # writeback rate (i.e., wrbks/ref)
il1.inv_rate                 0.0000 # invalidation rate (i.e., invs/ref)
dl1.accesses               45365759 # total number of accesses
dl1.hits                   45105443 # total number of hits
dl1.misses                   260316 # total number of misses
dl1.replacements             260060 # total number of replacements
dl1.writebacks                62019 # total number of writebacks
dl1.invalidations                 0 # total number of invalidations
dl1.miss_rate                0.0057 # miss rate (i.e., misses/ref)
dl1.repl_rate                0.0057 # replacement rate (i.e., repls/ref)
dl1.wb_rate                  0.0014 # writeback rate (i.e., wrbks/ref)
dl1.inv_rate                 0.0000 # invalidation rate (i.e., invs/ref)
dl2.accesses                 946476 # total number of accesses
dl2.hits                     938094 # total number of hits
dl2.misses                     8382 # total number of misses
dl2.replacements               6334 # total number of replacements
dl2.writebacks                 2798 # total number of writebacks
dl2.invalidations                 0 # total number of invalidations
dl2.miss_rate                0.0089 # miss rate (i.e., misses/ref)
dl2.repl_rate                0.0067 # replacement rate (i.e., repls/ref)
dl2.wb_rate                  0.0030 # writeback rate (i.e., wrbks/ref)
dl2.inv_rate                 0.0000 # invalidation rate (i.e., invs/ref)
itlb.accesses             113835639 # total number of accesses
itlb.hits                 113835378 # total number of hits
itlb.misses                     261 # total number of misses
itlb.replacements               197 # total number of replacements
itlb.writebacks                   0 # total number of writebacks
itlb.invalidations                0 # total number of invalidations
itlb.miss_rate               0.0000 # miss rate (i.e., misses/ref)
itlb.repl_rate               0.0000 # replacement rate (i.e., repls/ref)
itlb.wb_rate                 0.0000 # writeback rate (i.e., wrbks/ref)
itlb.inv_rate                0.0000 # invalidation rate (i.e., invs/ref)
dtlb.accesses              45959959 # total number of accesses
dtlb.hits                  45959842 # total number of hits
dtlb.misses                     117 # total number of misses
dtlb.replacements                 6 # total number of replacements
dtlb.writebacks                   0 # total number of writebacks
dtlb.invalidations                0 # total number of invalidations
dtlb.miss_rate               0.0000 # miss rate (i.e., misses/ref)
dtlb.repl_rate               0.0000 # replacement rate (i.e., repls/ref)
dtlb.wb_rate                 0.0000 # writeback rate (i.e., wrbks/ref)
dtlb.inv_rate                0.0000 # invalidation rate (i.e., invs/ref)
rename_power           22052213.9291 # total power usage of rename unit
bpred_power            176035966.7730 # total power usage of bpred unit
window_power           116301763.9446 # total power usage of instruction window
lsq_power              50818193.9228 # total power usage of load/store queue
regfile_power          188486661.2346 # total power usage of arch. regfile
icache_power           160000601.5562 # total power usage of icache
dcache_power           339711056.1741 # total power usage of dcache
dcache2_power          163715688.8086 # total power usage of dcache2
alu_power              999352496.6815 # total power usage of alu
falu_power             753480056.5584 # total power usage of falu
resultbus_power        121220313.2646 # total power usage of resultbus
clock_power            1441064882.8984 # total power usage of clock
avg_rename_power             0.4180 # avg power usage of rename unit
avg_bpred_power              3.3365 # avg power usage of bpred unit
avg_window_power             2.2043 # avg power usage of instruction window
avg_lsq_power                0.9632 # avg power usage of lsq
avg_regfile_power            3.5725 # avg power usage of arch. regfile
avg_icache_power             3.0326 # avg power usage of icache
avg_dcache_power             6.4387 # avg power usage of dcache
avg_dcache2_power            3.1030 # avg power usage of dcache2
avg_alu_power               18.9412 # avg power usage of alu
avg_falu_power              14.2810 # avg power usage of falu
avg_resultbus_power          2.2975 # avg power usage of resultbus
avg_clock_power             27.3131 # avg power usage of clock
fetch_stage_power      336036568.3293 # total power usage of fetch stage
dispatch_stage_power   22052213.9291 # total power usage of dispatch stage
issue_stage_power      1791119512.7962 # total power usage of issue stage
avg_fetch_power              6.3691 # average power of fetch unit per cycle
avg_dispatch_power           0.4180 # average power of dispatch unit per cycle
avg_issue_power             33.9479 # average power of issue unit per cycle
total_power            3778759839.1875 # total power per cycle
avg_total_power_cycle       71.6205 # average total power per cycle
avg_total_power_cycle_nofp_nod2      54.2365 # average total power per cycle
avg_total_power_insn        37.7876 # average total power per insn
avg_total_power_insn_nofp_nod2      28.6156 # average total power per insn
rename_power_cc1       15602611.0748 # total power usage of rename unit_cc1
bpred_power_cc1              0.0000 # total power usage of bpred unit_cc1
window_power_cc1       103753164.1692 # total power usage of instruction window_cc1
lsq_power_cc1          15525077.0414 # total power usage of lsq_cc1
regfile_power_cc1      121643931.9619 # total power usage of arch. regfile_cc1
icache_power_cc1       114384026.8265 # total power usage of icache_cc1
dcache_power_cc1       188911711.0078 # total power usage of dcache_cc1
dcache2_power_cc1      2703484.0276 # total power usage of dcache2_cc1
alu_power_cc1          353054406.7930 # total power usage of alu_cc1
resultbus_power_cc1    97888414.9801 # total power usage of resultbus_cc1
clock_power_cc1        645363044.4204 # total power usage of clock_cc1
avg_rename_power_cc1         0.2957 # avg power usage of rename unit_cc1
avg_bpred_power_cc1          0.0000 # avg power usage of bpred unit_cc1
avg_window_power_cc1         1.9665 # avg power usage of instruction window_cc1
avg_lsq_power_cc1            0.2943 # avg power usage of lsq_cc1
avg_regfile_power_cc1        2.3056 # avg power usage of arch. regfile_cc1
avg_icache_power_cc1         2.1680 # avg power usage of icache_cc1
avg_dcache_power_cc1         3.5805 # avg power usage of dcache_cc1
avg_dcache2_power_cc1        0.0512 # avg power usage of dcache2_cc1
avg_alu_power_cc1            6.6916 # avg power usage of alu_cc1
avg_resultbus_power_cc1       1.8553 # avg power usage of resultbus_cc1
avg_clock_power_cc1         12.2319 # avg power usage of clock_cc1
fetch_stage_power_cc1  114384026.8265 # total power usage of fetch stage_cc1
dispatch_stage_power_cc1 15602611.0748 # total power usage of dispatch stage_cc1
issue_stage_power_cc1  761836258.0192 # total power usage of issue stage_cc1
avg_fetch_power_cc1          2.1680 # average power of fetch unit per cycle_cc1
avg_dispatch_power_cc1       0.2957 # average power of dispatch unit per cycle_cc1
avg_issue_power_cc1         14.4394 # average power of issue unit per cycle_cc1
total_power_cycle_cc1  1658829872.3027 # total power per cycle_cc1
avg_total_power_cycle_cc1      31.4405 # average total power per cycle_cc1
avg_total_power_insn_cc1      16.5883 # average total power per insn_cc1
rename_power_cc2       10449137.1669 # total power usage of rename unit_cc2
bpred_power_cc2              0.0000 # total power usage of bpred unit_cc2
window_power_cc2       83007091.0276 # total power usage of instruction window_cc2
lsq_power_cc2          11017458.5185 # total power usage of lsq_cc2
regfile_power_cc2      41080472.6803 # total power usage of arch. regfile_cc2
icache_power_cc2       114384026.8265 # total power usage of icache_cc2
dcache_power_cc2       146048160.6248 # total power usage of dcache_cc2
dcache2_power_cc2      1468446.5217 # total power usage of dcache2_cc2
alu_power_cc2          150684758.8158 # total power usage of alu_cc2
resultbus_power_cc2    63651651.9464 # total power usage of resultbus_cc2
clock_power_cc2        396890446.8524 # total power usage of clock_cc2
avg_rename_power_cc2         0.1980 # avg power usage of rename unit_cc2
avg_bpred_power_cc2          0.0000 # avg power usage of bpred unit_cc2
avg_window_power_cc2         1.5733 # avg power usage of instruction window_cc2
avg_lsq_power_cc2            0.2088 # avg power usage of instruction lsq_cc2
avg_regfile_power_cc2        0.7786 # avg power usage of arch. regfile_cc2
avg_icache_power_cc2         2.1680 # avg power usage of icache_cc2
avg_dcache_power_cc2         2.7681 # avg power usage of dcache_cc2
avg_dcache2_power_cc2        0.0278 # avg power usage of dcache2_cc2
avg_alu_power_cc2            2.8560 # avg power usage of alu_cc2
avg_resultbus_power_cc2       1.2064 # avg power usage of resultbus_cc2
avg_clock_power_cc2          7.5224 # avg power usage of clock_cc2
fetch_stage_power_cc2  114384026.8265 # total power usage of fetch stage_cc2
dispatch_stage_power_cc2 10449137.1669 # total power usage of dispatch stage_cc2
issue_stage_power_cc2  455877567.4549 # total power usage of issue stage_cc2
avg_fetch_power_cc2          2.1680 # average power of fetch unit per cycle_cc2
avg_dispatch_power_cc2       0.1980 # average power of dispatch unit per cycle_cc2
avg_issue_power_cc2          8.6405 # average power of issue unit per cycle_cc2
total_power_cycle_cc2  1018681650.9810 # total power per cycle_cc2
avg_total_power_cycle_cc2      19.3075 # average total power per cycle_cc2
avg_total_power_insn_cc2      10.1868 # average total power per insn_cc2
rename_power_cc3       11094097.4491 # total power usage of rename unit_cc3
bpred_power_cc3        17603596.6777 # total power usage of bpred unit_cc3
window_power_cc3       83716666.4102 # total power usage of instruction window_cc3
lsq_power_cc3          14474614.3634 # total power usage of lsq_cc3
regfile_power_cc3      45801769.2952 # total power usage of arch. regfile_cc3
icache_power_cc3       118945684.2734 # total power usage of icache_cc3
dcache_power_cc3       162216135.9012 # total power usage of dcache_cc3
dcache2_power_cc3      17570753.0530 # total power usage of dcache2_cc3
alu_power_cc3          215314567.5272 # total power usage of alu_cc3
resultbus_power_cc3    65415614.1728 # total power usage of resultbus_cc3
clock_power_cc3        475099111.0954 # total power usage of clock_cc3
avg_rename_power_cc3         0.2103 # avg power usage of rename unit_cc3
avg_bpred_power_cc3          0.3336 # avg power usage of bpred unit_cc3
avg_window_power_cc3         1.5867 # avg power usage of instruction window_cc3
avg_lsq_power_cc3            0.2743 # avg power usage of instruction lsq_cc3
avg_regfile_power_cc3        0.8681 # avg power usage of arch. regfile_cc3
avg_icache_power_cc3         2.2544 # avg power usage of icache_cc3
avg_dcache_power_cc3         3.0746 # avg power usage of dcache_cc3
avg_dcache2_power_cc3        0.3330 # avg power usage of dcache2_cc3
avg_alu_power_cc3            4.0810 # avg power usage of alu_cc3
avg_resultbus_power_cc3       1.2399 # avg power usage of resultbus_cc3
avg_clock_power_cc3          9.0048 # avg power usage of clock_cc3
fetch_stage_power_cc3  136549280.9511 # total power usage of fetch stage_cc3
dispatch_stage_power_cc3 11094097.4491 # total power usage of dispatch stage_cc3
issue_stage_power_cc3  558708351.4278 # total power usage of issue stage_cc3
avg_fetch_power_cc3          2.5881 # average power of fetch unit per cycle_cc3
avg_dispatch_power_cc3       0.2103 # average power of dispatch unit per cycle_cc3
avg_issue_power_cc3         10.5894 # average power of issue unit per cycle_cc3
total_power_cycle_cc3  1227252610.2186 # total power per cycle_cc3
avg_total_power_cycle_cc3      23.2607 # average total power per cycle_cc3
avg_total_power_insn_cc3      12.2725 # average total power per insn_cc3
total_rename_access       100000000 # total number accesses of rename unit
total_bpred_access                0 # total number accesses of bpred unit
total_window_access       402999640 # total number accesses of instruction window
total_lsq_access           46554159 # total number accesses of load/store queue
total_regfile_access      161786096 # total number accesses of arch. regfile
total_icache_access       113835639 # total number accesses of icache
total_dcache_access        45365759 # total number accesses of dcache
total_dcache2_access         946476 # total number accesses of dcache2
total_alu_access           99880646 # total number accesses of alu
total_resultbus_access    118204706 # total number accesses of resultbus
avg_rename_access            1.8953 # avg number accesses of rename unit
avg_bpred_access             0.0000 # avg number accesses of bpred unit
avg_window_access            7.6382 # avg number accesses of instruction window
avg_lsq_access               0.8824 # avg number accesses of lsq
avg_regfile_access           3.0664 # avg number accesses of arch. regfile
avg_icache_access            2.1576 # avg number accesses of icache
avg_dcache_access            0.8598 # avg number accesses of dcache
avg_dcache2_access           0.0179 # avg number accesses of dcache2
avg_alu_access               1.8931 # avg number accesses of alu
avg_resultbus_access         2.2404 # avg number accesses of resultbus
max_rename_access                 4 # max number accesses of rename unit
max_bpred_access                  0 # max number accesses of bpred unit
max_window_access                17 # max number accesses of instruction window
max_lsq_access                    6 # max number accesses of load/store queue
max_regfile_access               12 # max number accesses of arch. regfile
max_icache_access                 4 # max number accesses of icache
max_dcache_access                 4 # max number accesses of dcache
max_dcache2_access                5 # max number accesses of dcache2
max_alu_access                    4 # max number accesses of alu
max_resultbus_access              8 # max number accesses of resultbus
max_cycle_power_cc1         55.7668 # maximum cycle power usage of cc1
max_cycle_power_cc2         35.7947 # maximum cycle power usage of cc2
max_cycle_power_cc3         38.3288 # maximum cycle power usage of cc3
sim_invalid_addrs                 0 # total non-speculative bogus addresses seen (debug var)
ld_text_base           0x0120000000 # program text (code) segment base
ld_text_size                 794624 # program text (code) size in bytes
ld_data_base           0x0140000000 # program initialized data segment base
ld_data_size                 216592 # program init'ed `.data' and uninit'ed `.bss' size in bytes
ld_stack_base          0x011ff9b000 # program stack segment base (highest address in stack)
ld_stack_size                 16384 # program initial stack size
ld_prog_entry          0x012002d410 # program entry point (initial PC)
ld_environ_base        0x011ff97000 # program environment base address address
ld_target_big_endian              0 # target executable endian-ness, non-zero if big endian
mem.page_count                  148 # total number of pages allocated
mem.page_mem                  1184k # total size of memory pages allocated
mem.ptab_misses              583368 # total first level page table misses
mem.ptab_accesses         867051118 # total page table accesses
mem.ptab_miss_rate           0.0007 # first level page table miss rate

