sim-outorder: SimpleScalar/Alpha Tool Set version 3.0 of August, 2003.
Copyright (c) 1994-2003 by Todd M. Austin, Ph.D. and SimpleScalar, LLC.
All Rights Reserved. This version of SimpleScalar is licensed for academic
non-commercial use.  No portion of this work may be used by any commercial
entity, or for any commercial purpose, without the prior written permission
of SimpleScalar, LLC (info@simplescalar.com).


Processor Parameters:
Issue Width: 512
Window Size: 512
Number of Virtual Registers: 32
Number of Physical Registers: 512
Datapath Width: 64
Total Power Consumption: 428161
Branch Predictor Power Consumption: 3.11615  (0.000728%)
 branch target buffer power (W): 2.49493
 local predict power (W): 0.354432
 global predict power (W): 0.0996078
 chooser power (W): 0.0702439
 RAS power (W): 0.0969383
Rename Logic Power Consumption: 2146.62  (0.501%)
 Instruction Decode Power (W): 2.04692
 RAT decode_power (W): 14.5298
 RAT wordline_power (W): 143.664
 RAT bitline_power (W): 1748.57
 DCL Comparators (W): 237.813
Instruction Window Power Consumption: 219131  (51.2%)
 tagdrive (W): 20067.6
 tagmatch (W): 4162.93
 Selection Logic (W): 58.7548
 decode_power (W): 321.155
 wordline_power (W): 983.25
 bitline_power (W): 193537
Load/Store Queue Power Consumption: 162.523  (0.038%)
 tagdrive (W): 82.7366
 tagmatch (W): 30.9028
 decode_power (W): 3.34536
 wordline_power (W): 0.139808
 bitline_power (W): 45.3986
Arch. Register File Power Consumption: 13400.7  (3.13%)
 decode_power (W): 14.5298
 wordline_power (W): 983.25
 bitline_power (W): 12402.9
Result Bus Power Consumption: 191641  (44.8%)
Total Clock Power: 1604.92  (0.375%)
Int ALU Power: 9.32026  (0.00218%)
FP ALU Power: 28.5621  (0.00667%)
Instruction Cache Power Consumption: 2.76773  (0.000646%)
 decode_power (W): 0.151353
 wordline_power (W): 0.180479
 bitline_power (W): 1.42251
 senseamp_power (W): 0.768
 tagarray_power (W): 0.245382
Itlb_power (W): 0.264936 (6.19e-05%)
Data Cache Power Consumption: 22.1418  (0.00517%)
 decode_power (W): 1.21082
 wordline_power (W): 1.44383
 bitline_power (W): 11.3801
 senseamp_power (W): 6.144
 tagarray_power (W): 1.96306
Dtlb_power (W): 3.61376 (0.000844%)
Level 2 Cache Power Consumption: 3.10298 (0.000725%)
 decode_power (W): 0.19487
 wordline_power (W): 0.0430878
 bitline_power (W): 1.77274
 senseamp_power (W): 0.192
 tagarray_power (W): 0.900275
sim: loading EIO file: ../benchmarks/188.ammp.spec_ref.eio.gz
sim: command line: ./sim-outorder -config ../configs/current.config ../benchmarks/188.ammp.spec_ref.eio.gz 

sim: simulation started @ Tue Nov 24 14:07:24 2015, options follow:

sim-outorder: This simulator implements a very detailed out-of-order issue
superscalar processor with a two-level memory system and speculative
execution support.  This simulator is a performance simulator, tracking the
latency of all pipeline operations.

# -config                     # load configuration from a file
# -dumpconfig                 # dump configuration to a file
# -h                    false # print help message    
# -v                    false # verbose operation     
# -d                    false # enable debug message  
# -i                    false # start in Dlite debugger
-seed                       1 # random number generator seed (0 for timer seed)
# -q                    false # initialize and terminate immediately
# -chkpt               <null> # restore EIO trace execution from <fname>
# -redir:sim     ../results/31_23_max/188.ammp.spec_ref.eio.gz.out # redirect simulator output to file (non-interactive only)
# -redir:prog       /dev/null # redirect simulated program output to file
-nice                       0 # simulator scheduling priority
-freq            600000000.0000 # frequency             
-max:inst           100000000 # maximum number of inst's to execute
-fastfwd                    0 # number of insts skipped before timing starts
# -ptrace              <null> # generate pipetrace, i.e., <fname|stdout|stderr> <range>
-fetch:ifqsize            512 # instruction fetch queue size (in insts)
-fetch:mplat               15 # extra branch mis-prediction latency
-fetch:speed                1 # speed of front-end of machine relative to execution core
-bpred                perfect # branch predictor type {nottaken|taken|perfect|bimod|2lev|comb}
-bpred:bimod     2048 # bimodal predictor config (<table size>)
-bpred:2lev      1 8192 8 0 # 2-level predictor config (<l1size> <l2size> <hist_size> <xor>)
-bpred:comb      1024 # combining predictor config (<meta_table_size>)
-bpred:ras                  8 # return address stack size (0 for no return stack)
-bpred:btb       512 4 # BTB config (<num_sets> <associativity>)
# -bpred:spec_update       <null> # speculative predictors update in {ID|WB} (default non-spec)
-decode:width             512 # instruction decode B/W (insts/cycle)
-issue:width              512 # instruction issue B/W (insts/cycle)
-issue:inorder          false # run pipeline with in-order issue
-issue:wrongpath         true # issue instructions down wrong execution paths
-commit:width             512 # instruction commit B/W (insts/cycle)
-ruu:size                 512 # register update unit (RUU) size
-lsq:size                 512 # load/store queue (LSQ) size
-cache:dl1       dl1:32:64:8:f # l1 data cache config, i.e., {<config>|none}
-cache:dl1lat               1 # l1 data cache hit latency (in cycles)
-cache:dl2       dl2:256:64:8:f # l2 data cache config, i.e., {<config>|none}
-cache:dl2lat               2 # l2 data cache hit latency (in cycles)
-cache:il1       il1:32:64:8:f # l1 inst cache config, i.e., {<config>|dl1|dl2|none}
-cache:il1lat               1 # l1 instruction cache hit latency (in cycles)
-cache:il2                dl2 # l2 instruction cache config, i.e., {<config>|dl2|none}
-cache:il2lat               2 # l2 instruction cache hit latency (in cycles)
-cache:flush            false # flush caches on system calls
-cache:icompress        false # convert 64-bit inst addresses to 32-bit inst equivalents
-mem:lat         103 1 # memory access latency (<first_chunk> <inter_chunk>)
-mem:width                  8 # memory access bus width (in bytes)
-tlb:itlb        itlb:16:4096:4:l # instruction TLB config, i.e., {<config>|none}
-tlb:dtlb        dtlb:32:4096:4:l # data TLB config, i.e., {<config>|none}
-tlb:lat                   30 # inst/data TLB miss latency (in cycles)
-res:ialu                   8 # total number of integer ALU's available
-res:imult                  8 # total number of integer multiplier/dividers available
-res:memport                8 # total number of memory system ports available (to CPU)
-res:fpalu                  8 # total number of floating point ALU's available
-res:fpmult                 8 # total number of floating point multiplier/dividers available
# -pcstat              <null> # profile stat(s) against text addr's (mult uses ok)
-bugcompat              false # operate in backward-compatible bugs mode (for testing only)

  Pipetrace range arguments are formatted as follows:

    {{@|#}<start>}:{{@|#|+}<end>}

  Both ends of the range are optional, if neither are specified, the entire
  execution is traced.  Ranges that start with a `@' designate an address
  range to be traced, those that start with an `#' designate a cycle count
  range.  All other range values represent an instruction count range.  The
  second argument, if specified with a `+', indicates a value relative
  to the first argument, e.g., 1000:+100 == 1000:1100.  Program symbols may
  be used in all contexts.

    Examples:   -ptrace FOO.trc #0:#1000
                -ptrace BAR.trc @2000:
                -ptrace BLAH.trc :1500
                -ptrace UXXE.trc :
                -ptrace FOOBAR.trc @main:+278

  Branch predictor configuration examples for 2-level predictor:
    Configurations:   N, M, W, X
      N   # entries in first level (# of shift register(s))
      W   width of shift register(s)
      M   # entries in 2nd level (# of counters, or other FSM)
      X   (yes-1/no-0) xor history and address for 2nd level index
    Sample predictors:
      GAg     : 1, W, 2^W, 0
      GAp     : 1, W, M (M > 2^W), 0
      PAg     : N, W, 2^W, 0
      PAp     : N, W, M (M == 2^(N+W)), 0
      gshare  : 1, W, 2^W, 1
  Predictor `comb' combines a bimodal and a 2-level predictor.

  The cache config parameter <config> has the following format:

    <name>:<nsets>:<bsize>:<assoc>:<repl>

    <name>   - name of the cache being defined
    <nsets>  - number of sets in the cache
    <bsize>  - block size of the cache
    <assoc>  - associativity of the cache
    <repl>   - block replacement strategy, 'l'-LRU, 'f'-FIFO, 'r'-random

    Examples:   -cache:dl1 dl1:4096:32:1:l
                -dtlb dtlb:128:4096:32:r

  Cache levels can be unified by pointing a level of the instruction cache
  hierarchy at the data cache hiearchy using the "dl1" and "dl2" cache
  configuration arguments.  Most sensible combinations are supported, e.g.,

    A unified l2 cache (il2 is pointed at dl2):
      -cache:il1 il1:128:64:1:l -cache:il2 dl2
      -cache:dl1 dl1:256:32:1:l -cache:dl2 ul2:1024:64:2:l

    Or, a fully unified cache hierarchy (il1 pointed at dl1):
      -cache:il1 dl1
      -cache:dl1 ul1:256:32:1:l -cache:dl2 ul2:1024:64:2:l



sim: ** starting performance simulation **
fatal: STD unknown array overflow, increase MAX_STD_UNKNOWNS

sim: ** simulation statistics **
sim_num_insn                   1399 # total number of instructions committed
sim_num_refs                    505 # total number of loads and stores committed
sim_num_loads                   323 # total number of loads committed
sim_num_stores             182.0000 # total number of stores committed
sim_num_branches                120 # total number of branches committed
sim_elapsed_time                  1 # total simulation time in seconds
sim_inst_rate             1399.0000 # simulation speed (in insts/sec)
sim_total_insn                 1399 # total number of instructions executed
sim_total_refs                  505 # total number of loads and stores executed
sim_total_loads                 323 # total number of loads executed
sim_total_stores           182.0000 # total number of stores executed
sim_total_branches              120 # total number of branches executed
sim_cycle                      4334 # total simulation time in cycles
sim_IPC                      0.3228 # instructions per cycle
sim_CPI                      3.0979 # cycles per instruction
sim_exec_BW                  0.3228 # total instructions (mis-spec + committed) per cycle
sim_IPB                     11.6583 # instruction per branch
IFQ_count                      9326 # cumulative IFQ occupancy
IFQ_fcount                       11 # cumulative IFQ full count
ifq_occupancy                2.1518 # avg IFQ occupancy (insn's)
ifq_rate                     0.3228 # avg IFQ dispatch rate (insn/cycle)
ifq_latency                  6.6662 # avg IFQ occupant latency (cycle's)
ifq_full                     0.0025 # fraction of time (cycle's) IFQ was full
RUU_count                     46534 # cumulative RUU occupancy
RUU_fcount                        1 # cumulative RUU full count
ruu_occupancy               10.7370 # avg RUU occupancy (insn's)
ruu_rate                     0.3228 # avg RUU dispatch rate (insn/cycle)
ruu_latency                 33.2623 # avg RUU occupant latency (cycle's)
ruu_full                     0.0002 # fraction of time (cycle's) RUU was full
LSQ_count                     18508 # cumulative LSQ occupancy
LSQ_fcount                        0 # cumulative LSQ full count
lsq_occupancy                4.2704 # avg LSQ occupancy (insn's)
lsq_rate                     0.3228 # avg LSQ dispatch rate (insn/cycle)
lsq_latency                 13.2294 # avg LSQ occupant latency (cycle's)
lsq_full                     0.0000 # fraction of time (cycle's) LSQ was full
sim_slip                      48219 # total number of slip cycles
avg_sim_slip                34.4668 # the average slip between issue and retirement
il1.accesses                   9244 # total number of accesses
il1.hits                       9204 # total number of hits
il1.misses                       40 # total number of misses
il1.replacements                  0 # total number of replacements
il1.writebacks                    0 # total number of writebacks
il1.invalidations                 0 # total number of invalidations
il1.miss_rate                0.0043 # miss rate (i.e., misses/ref)
il1.repl_rate                0.0000 # replacement rate (i.e., repls/ref)
il1.wb_rate                  0.0000 # writeback rate (i.e., wrbks/ref)
il1.inv_rate                 0.0000 # invalidation rate (i.e., invs/ref)
dl1.accesses                    426 # total number of accesses
dl1.hits                        405 # total number of hits
dl1.misses                       21 # total number of misses
dl1.replacements                  0 # total number of replacements
dl1.writebacks                    0 # total number of writebacks
dl1.invalidations                 0 # total number of invalidations
dl1.miss_rate                0.0493 # miss rate (i.e., misses/ref)
dl1.repl_rate                0.0000 # replacement rate (i.e., repls/ref)
dl1.wb_rate                  0.0000 # writeback rate (i.e., wrbks/ref)
dl1.inv_rate                 0.0000 # invalidation rate (i.e., invs/ref)
dl2.accesses                     61 # total number of accesses
dl2.hits                          0 # total number of hits
dl2.misses                       61 # total number of misses
dl2.replacements                  0 # total number of replacements
dl2.writebacks                    0 # total number of writebacks
dl2.invalidations                 0 # total number of invalidations
dl2.miss_rate                1.0000 # miss rate (i.e., misses/ref)
dl2.repl_rate                0.0000 # replacement rate (i.e., repls/ref)
dl2.wb_rate                  0.0000 # writeback rate (i.e., wrbks/ref)
dl2.inv_rate                 0.0000 # invalidation rate (i.e., invs/ref)
itlb.accesses                  9244 # total number of accesses
itlb.hits                      9242 # total number of hits
itlb.misses                       2 # total number of misses
itlb.replacements                 0 # total number of replacements
itlb.writebacks                   0 # total number of writebacks
itlb.invalidations                0 # total number of invalidations
itlb.miss_rate               0.0002 # miss rate (i.e., misses/ref)
itlb.repl_rate               0.0000 # replacement rate (i.e., repls/ref)
itlb.wb_rate                 0.0000 # writeback rate (i.e., wrbks/ref)
itlb.inv_rate                0.0000 # invalidation rate (i.e., invs/ref)
dtlb.accesses                   426 # total number of accesses
dtlb.hits                       422 # total number of hits
dtlb.misses                       4 # total number of misses
dtlb.replacements                 0 # total number of replacements
dtlb.writebacks                   0 # total number of writebacks
dtlb.invalidations                0 # total number of invalidations
dtlb.miss_rate               0.0094 # miss rate (i.e., misses/ref)
dtlb.repl_rate               0.0000 # replacement rate (i.e., repls/ref)
dtlb.wb_rate                 0.0000 # writeback rate (i.e., wrbks/ref)
dtlb.inv_rate                0.0000 # invalidation rate (i.e., invs/ref)
rename_power           9303446.0187 # total power usage of rename unit
bpred_power              13505.3955 # total power usage of bpred unit
window_power           949712542.7990 # total power usage of instruction window
lsq_power               704375.9023 # total power usage of load/store queue
regfile_power          58078694.4367 # total power usage of arch. regfile
icache_power             13143.5666 # total power usage of icache
dcache_power            111624.7367 # total power usage of dcache
dcache2_power            13448.3013 # total power usage of dcache2
alu_power               164182.1084 # total power usage of alu
falu_power              123788.0976 # total power usage of falu
resultbus_power        830571205.8495 # total power usage of resultbus
clock_power            6955743.1736 # total power usage of clock
avg_rename_power          2146.6188 # avg power usage of rename unit
avg_bpred_power              3.1162 # avg power usage of bpred unit
avg_window_power        219130.7205 # avg power usage of instruction window
avg_lsq_power              162.5233 # avg power usage of lsq
avg_regfile_power        13400.7140 # avg power usage of arch. regfile
avg_icache_power             3.0327 # avg power usage of icache
avg_dcache_power            25.7556 # avg power usage of dcache
avg_dcache2_power            3.1030 # avg power usage of dcache2
avg_alu_power               37.8824 # avg power usage of alu
avg_falu_power              28.5621 # avg power usage of falu
avg_resultbus_power     191640.7951 # avg power usage of resultbus
avg_clock_power           1604.9246 # avg power usage of clock
fetch_stage_power        26648.9621 # total power usage of fetch stage
dispatch_stage_power   9303446.0187 # total power usage of dispatch stage
issue_stage_power      1781277379.6971 # total power usage of issue stage
avg_fetch_power              6.1488 # average power of fetch unit per cycle
avg_dispatch_power        2146.6188 # average power of dispatch unit per cycle
avg_issue_power         411000.7798 # average power of issue unit per cycle
total_power            1855641912.2882 # total power per cycle
avg_total_power_cycle   428159.1860 # average total power per cycle
avg_total_power_cycle_nofp_nod2  428127.5210 # average total power per cycle
avg_total_power_insn   1326405.9416 # average total power per insn
avg_total_power_insn_nofp_nod2 1326307.8455 # average total power per insn
rename_power_cc1        103037.7039 # total power usage of rename unit_cc1
bpred_power_cc1              0.0000 # total power usage of bpred unit_cc1
window_power_cc1       67387574.4258 # total power usage of instruction window_cc1
lsq_power_cc1            13888.8412 # total power usage of lsq_cc1
regfile_power_cc1      2875729.8225 # total power usage of arch. regfile_cc1
icache_power_cc1           154.6659 # total power usage of icache_cc1
dcache_power_cc1          3786.0721 # total power usage of dcache_cc1
dcache2_power_cc1          179.9727 # total power usage of dcache2_cc1
alu_power_cc1             5117.4245 # total power usage of alu_cc1
resultbus_power_cc1    48329413.0076 # total power usage of resultbus_cc1
clock_power_cc1         326953.3927 # total power usage of clock_cc1
avg_rename_power_cc1        23.7743 # avg power usage of rename unit_cc1
avg_bpred_power_cc1          0.0000 # avg power usage of bpred unit_cc1
avg_window_power_cc1     15548.5866 # avg power usage of instruction window_cc1
avg_lsq_power_cc1            3.2046 # avg power usage of lsq_cc1
avg_regfile_power_cc1      663.5279 # avg power usage of arch. regfile_cc1
avg_icache_power_cc1         0.0357 # avg power usage of icache_cc1
avg_dcache_power_cc1         0.8736 # avg power usage of dcache_cc1
avg_dcache2_power_cc1        0.0415 # avg power usage of dcache2_cc1
avg_alu_power_cc1            1.1808 # avg power usage of alu_cc1
avg_resultbus_power_cc1   11151.2259 # avg power usage of resultbus_cc1
avg_clock_power_cc1         75.4392 # avg power usage of clock_cc1
fetch_stage_power_cc1      154.6659 # total power usage of fetch stage_cc1
dispatch_stage_power_cc1  103037.7039 # total power usage of dispatch stage_cc1
issue_stage_power_cc1  115739959.7440 # total power usage of issue stage_cc1
avg_fetch_power_cc1          0.0357 # average power of fetch unit per cycle_cc1
avg_dispatch_power_cc1      23.7743 # average power of dispatch unit per cycle_cc1
avg_issue_power_cc1      26705.1130 # average power of issue unit per cycle_cc1
total_power_cycle_cc1  119045835.3291 # total power per cycle_cc1
avg_total_power_cycle_cc1   27467.8900 # average total power per cycle_cc1
avg_total_power_insn_cc1   85093.5206 # average total power per insn_cc1
rename_power_cc2          5865.4683 # total power usage of rename unit_cc2
bpred_power_cc2              0.0000 # total power usage of bpred unit_cc2
window_power_cc2        740251.5207 # total power usage of instruction window_cc2
lsq_power_cc2             5107.9504 # total power usage of lsq_cc2
regfile_power_cc2        13138.9336 # total power usage of arch. regfile_cc2
icache_power_cc2           154.6659 # total power usage of icache_cc2
dcache_power_cc2          1371.4853 # total power usage of dcache_cc2
dcache2_power_cc2           23.6602 # total power usage of dcache2_cc2
alu_power_cc2             2176.7695 # total power usage of alu_cc2
resultbus_power_cc2     462141.5902 # total power usage of resultbus_cc2
clock_power_cc2           2371.2170 # total power usage of clock_cc2
avg_rename_power_cc2         1.3534 # avg power usage of rename unit_cc2
avg_bpred_power_cc2          0.0000 # avg power usage of bpred unit_cc2
avg_window_power_cc2       170.8010 # avg power usage of instruction window_cc2
avg_lsq_power_cc2            1.1786 # avg power usage of instruction lsq_cc2
avg_regfile_power_cc2        3.0316 # avg power usage of arch. regfile_cc2
avg_icache_power_cc2         0.0357 # avg power usage of icache_cc2
avg_dcache_power_cc2         0.3164 # avg power usage of dcache_cc2
avg_dcache2_power_cc2        0.0055 # avg power usage of dcache2_cc2
avg_alu_power_cc2            0.5023 # avg power usage of alu_cc2
avg_resultbus_power_cc2     106.6317 # avg power usage of resultbus_cc2
avg_clock_power_cc2          0.5471 # avg power usage of clock_cc2
fetch_stage_power_cc2      154.6659 # total power usage of fetch stage_cc2
dispatch_stage_power_cc2    5865.4683 # total power usage of dispatch stage_cc2
issue_stage_power_cc2  1211072.9763 # total power usage of issue stage_cc2
avg_fetch_power_cc2          0.0357 # average power of fetch unit per cycle_cc2
avg_dispatch_power_cc2       1.3534 # average power of dispatch unit per cycle_cc2
avg_issue_power_cc2        279.4354 # average power of issue unit per cycle_cc2
total_power_cycle_cc2  1232603.2610 # total power per cycle_cc2
avg_total_power_cycle_cc2     284.4032 # average total power per cycle_cc2
avg_total_power_insn_cc2     881.0602 # average total power per insn_cc2
rename_power_cc3        925906.2997 # total power usage of rename unit_cc3
bpred_power_cc3           1350.5396 # total power usage of bpred unit_cc3
window_power_cc3       88374892.1271 # total power usage of instruction window_cc3
lsq_power_cc3            74140.2850 # total power usage of lsq_cc3
regfile_power_cc3      5511451.8840 # total power usage of arch. regfile_cc3
icache_power_cc3          1453.5559 # total power usage of icache_cc3
dcache_power_cc3         12155.3518 # total power usage of dcache_cc3
dcache2_power_cc3         1350.4931 # total power usage of dcache2_cc3
alu_power_cc3            18083.2379 # total power usage of alu_cc3
resultbus_power_cc3    78364124.7876 # total power usage of resultbus_cc3
clock_power_cc3         662687.1869 # total power usage of clock_cc3
avg_rename_power_cc3       213.6378 # avg power usage of rename unit_cc3
avg_bpred_power_cc3          0.3116 # avg power usage of bpred unit_cc3
avg_window_power_cc3     20391.0688 # avg power usage of instruction window_cc3
avg_lsq_power_cc3           17.1067 # avg power usage of instruction lsq_cc3
avg_regfile_power_cc3     1271.6779 # avg power usage of arch. regfile_cc3
avg_icache_power_cc3         0.3354 # avg power usage of icache_cc3
avg_dcache_power_cc3         2.8046 # avg power usage of dcache_cc3
avg_dcache2_power_cc3        0.3116 # avg power usage of dcache2_cc3
avg_alu_power_cc3            4.1724 # avg power usage of alu_cc3
avg_resultbus_power_cc3   18081.2471 # avg power usage of resultbus_cc3
avg_clock_power_cc3        152.9043 # avg power usage of clock_cc3
fetch_stage_power_cc3     2804.0955 # total power usage of fetch stage_cc3
dispatch_stage_power_cc3  925906.2997 # total power usage of dispatch stage_cc3
issue_stage_power_cc3  166844746.2824 # total power usage of issue stage_cc3
avg_fetch_power_cc3          0.6470 # average power of fetch unit per cycle_cc3
avg_dispatch_power_cc3     213.6378 # average power of dispatch unit per cycle_cc3
avg_issue_power_cc3      38496.7112 # average power of issue unit per cycle_cc3
total_power_cycle_cc3  173947595.7485 # total power per cycle_cc3
avg_total_power_cycle_cc3   40135.5782 # average total power per cycle_cc3
avg_total_power_insn_cc3  124337.0949 # average total power per insn_cc3
total_rename_access            1399 # total number accesses of rename unit
total_bpred_access                0 # total number accesses of bpred unit
total_window_access            4365 # total number accesses of instruction window
total_lsq_access                426 # total number accesses of load/store queue
total_regfile_access           1660 # total number accesses of arch. regfile
total_icache_access            9244 # total number accesses of icache
total_dcache_access             426 # total number accesses of dcache
total_dcache2_access             61 # total number accesses of dcache2
total_alu_access               1183 # total number accesses of alu
total_resultbus_access         1317 # total number accesses of resultbus
avg_rename_access            0.3228 # avg number accesses of rename unit
avg_bpred_access             0.0000 # avg number accesses of bpred unit
avg_window_access            1.0072 # avg number accesses of instruction window
avg_lsq_access               0.0983 # avg number accesses of lsq
avg_regfile_access           0.3830 # avg number accesses of arch. regfile
avg_icache_access            2.1329 # avg number accesses of icache
avg_dcache_access            0.0983 # avg number accesses of dcache
avg_dcache2_access           0.0141 # avg number accesses of dcache2
avg_alu_access               0.2730 # avg number accesses of alu
avg_resultbus_access         0.3039 # avg number accesses of resultbus
max_rename_access               390 # max number accesses of rename unit
max_bpred_access                  0 # max number accesses of bpred unit
max_window_access               353 # max number accesses of instruction window
max_lsq_access                    7 # max number accesses of load/store queue
max_regfile_access              168 # max number accesses of arch. regfile
max_icache_access               512 # max number accesses of icache
max_dcache_access                 6 # max number accesses of dcache
max_dcache2_access                3 # max number accesses of dcache2
max_alu_access                   18 # max number accesses of alu
max_resultbus_access             21 # max number accesses of resultbus
max_cycle_power_cc1     406482.2617 # maximum cycle power usage of cc1
max_cycle_power_cc2      47918.1264 # maximum cycle power usage of cc2
max_cycle_power_cc3      52059.7225 # maximum cycle power usage of cc3
sim_invalid_addrs                 0 # total non-speculative bogus addresses seen (debug var)
ld_text_base           0x0120000000 # program text (code) segment base
ld_text_size                 385024 # program text (code) size in bytes
ld_data_base           0x0140000000 # program initialized data segment base
ld_data_size                  79904 # program init'ed `.data' and uninit'ed `.bss' size in bytes
ld_stack_base          0x011ff9b000 # program stack segment base (highest address in stack)
ld_stack_size                 16384 # program initial stack size
ld_prog_entry          0x0120025e14 # program entry point (initial PC)
ld_environ_base        0x011ff952d0 # program environment base address address
ld_target_big_endian              0 # target executable endian-ness, non-zero if big endian
mem.page_count                 3373 # total number of pages allocated
mem.page_mem                 26984k # total size of memory pages allocated
mem.ptab_misses                3376 # total first level page table misses
mem.ptab_accesses          55289056 # total page table accesses
mem.ptab_miss_rate           0.0001 # first level page table miss rate

