sim-outorder: SimpleScalar/Alpha Tool Set version 3.0 of August, 2003.
Copyright (c) 1994-2003 by Todd M. Austin, Ph.D. and SimpleScalar, LLC.
All Rights Reserved. This version of SimpleScalar is licensed for academic
non-commercial use.  No portion of this work may be used by any commercial
entity, or for any commercial purpose, without the prior written permission
of SimpleScalar, LLC (info@simplescalar.com).


Processor Parameters:
Issue Width: 512
Window Size: 512
Number of Virtual Registers: 32
Number of Physical Registers: 512
Datapath Width: 64
Total Power Consumption: 428161
Branch Predictor Power Consumption: 3.11615  (0.000728%)
 branch target buffer power (W): 2.49493
 local predict power (W): 0.354432
 global predict power (W): 0.0996078
 chooser power (W): 0.0702439
 RAS power (W): 0.0969383
Rename Logic Power Consumption: 2146.62  (0.501%)
 Instruction Decode Power (W): 2.04692
 RAT decode_power (W): 14.5298
 RAT wordline_power (W): 143.664
 RAT bitline_power (W): 1748.57
 DCL Comparators (W): 237.813
Instruction Window Power Consumption: 219131  (51.2%)
 tagdrive (W): 20067.6
 tagmatch (W): 4162.93
 Selection Logic (W): 58.7548
 decode_power (W): 321.155
 wordline_power (W): 983.25
 bitline_power (W): 193537
Load/Store Queue Power Consumption: 162.523  (0.038%)
 tagdrive (W): 82.7366
 tagmatch (W): 30.9028
 decode_power (W): 3.34536
 wordline_power (W): 0.139808
 bitline_power (W): 45.3986
Arch. Register File Power Consumption: 13400.7  (3.13%)
 decode_power (W): 14.5298
 wordline_power (W): 983.25
 bitline_power (W): 12402.9
Result Bus Power Consumption: 191641  (44.8%)
Total Clock Power: 1604.92  (0.375%)
Int ALU Power: 9.32026  (0.00218%)
FP ALU Power: 28.5621  (0.00667%)
Instruction Cache Power Consumption: 2.76773  (0.000646%)
 decode_power (W): 0.151353
 wordline_power (W): 0.180479
 bitline_power (W): 1.42251
 senseamp_power (W): 0.768
 tagarray_power (W): 0.245382
Itlb_power (W): 0.264936 (6.19e-05%)
Data Cache Power Consumption: 22.1418  (0.00517%)
 decode_power (W): 1.21082
 wordline_power (W): 1.44383
 bitline_power (W): 11.3801
 senseamp_power (W): 6.144
 tagarray_power (W): 1.96306
Dtlb_power (W): 3.61376 (0.000844%)
Level 2 Cache Power Consumption: 3.10298 (0.000725%)
 decode_power (W): 0.19487
 wordline_power (W): 0.0430878
 bitline_power (W): 1.77274
 senseamp_power (W): 0.192
 tagarray_power (W): 0.900275
sim: loading EIO file: ../benchmarks/252.eon.rushmeier-ref.eio.gz
sim: command line: ./sim-outorder -config ../configs/current.config ../benchmarks/252.eon.rushmeier-ref.eio.gz 

sim: simulation started @ Tue Nov 24 14:07:22 2015, options follow:

sim-outorder: This simulator implements a very detailed out-of-order issue
superscalar processor with a two-level memory system and speculative
execution support.  This simulator is a performance simulator, tracking the
latency of all pipeline operations.

# -config                     # load configuration from a file
# -dumpconfig                 # dump configuration to a file
# -h                    false # print help message    
# -v                    false # verbose operation     
# -d                    false # enable debug message  
# -i                    false # start in Dlite debugger
-seed                       1 # random number generator seed (0 for timer seed)
# -q                    false # initialize and terminate immediately
# -chkpt               <null> # restore EIO trace execution from <fname>
# -redir:sim     ../results/31_23_max/252.eon.rushmeier-ref.eio.gz.out # redirect simulator output to file (non-interactive only)
# -redir:prog       /dev/null # redirect simulated program output to file
-nice                       0 # simulator scheduling priority
-freq            600000000.0000 # frequency             
-max:inst           100000000 # maximum number of inst's to execute
-fastfwd                    0 # number of insts skipped before timing starts
# -ptrace              <null> # generate pipetrace, i.e., <fname|stdout|stderr> <range>
-fetch:ifqsize            512 # instruction fetch queue size (in insts)
-fetch:mplat               15 # extra branch mis-prediction latency
-fetch:speed                1 # speed of front-end of machine relative to execution core
-bpred                perfect # branch predictor type {nottaken|taken|perfect|bimod|2lev|comb}
-bpred:bimod     2048 # bimodal predictor config (<table size>)
-bpred:2lev      1 8192 8 0 # 2-level predictor config (<l1size> <l2size> <hist_size> <xor>)
-bpred:comb      1024 # combining predictor config (<meta_table_size>)
-bpred:ras                  8 # return address stack size (0 for no return stack)
-bpred:btb       512 4 # BTB config (<num_sets> <associativity>)
# -bpred:spec_update       <null> # speculative predictors update in {ID|WB} (default non-spec)
-decode:width             512 # instruction decode B/W (insts/cycle)
-issue:width              512 # instruction issue B/W (insts/cycle)
-issue:inorder          false # run pipeline with in-order issue
-issue:wrongpath         true # issue instructions down wrong execution paths
-commit:width             512 # instruction commit B/W (insts/cycle)
-ruu:size                 512 # register update unit (RUU) size
-lsq:size                 512 # load/store queue (LSQ) size
-cache:dl1       dl1:32:64:8:f # l1 data cache config, i.e., {<config>|none}
-cache:dl1lat               1 # l1 data cache hit latency (in cycles)
-cache:dl2       dl2:256:64:8:f # l2 data cache config, i.e., {<config>|none}
-cache:dl2lat               2 # l2 data cache hit latency (in cycles)
-cache:il1       il1:32:64:8:f # l1 inst cache config, i.e., {<config>|dl1|dl2|none}
-cache:il1lat               1 # l1 instruction cache hit latency (in cycles)
-cache:il2                dl2 # l2 instruction cache config, i.e., {<config>|dl2|none}
-cache:il2lat               2 # l2 instruction cache hit latency (in cycles)
-cache:flush            false # flush caches on system calls
-cache:icompress        false # convert 64-bit inst addresses to 32-bit inst equivalents
-mem:lat         103 1 # memory access latency (<first_chunk> <inter_chunk>)
-mem:width                  8 # memory access bus width (in bytes)
-tlb:itlb        itlb:16:4096:4:l # instruction TLB config, i.e., {<config>|none}
-tlb:dtlb        dtlb:32:4096:4:l # data TLB config, i.e., {<config>|none}
-tlb:lat                   30 # inst/data TLB miss latency (in cycles)
-res:ialu                   8 # total number of integer ALU's available
-res:imult                  8 # total number of integer multiplier/dividers available
-res:memport                8 # total number of memory system ports available (to CPU)
-res:fpalu                  8 # total number of floating point ALU's available
-res:fpmult                 8 # total number of floating point multiplier/dividers available
# -pcstat              <null> # profile stat(s) against text addr's (mult uses ok)
-bugcompat              false # operate in backward-compatible bugs mode (for testing only)

  Pipetrace range arguments are formatted as follows:

    {{@|#}<start>}:{{@|#|+}<end>}

  Both ends of the range are optional, if neither are specified, the entire
  execution is traced.  Ranges that start with a `@' designate an address
  range to be traced, those that start with an `#' designate a cycle count
  range.  All other range values represent an instruction count range.  The
  second argument, if specified with a `+', indicates a value relative
  to the first argument, e.g., 1000:+100 == 1000:1100.  Program symbols may
  be used in all contexts.

    Examples:   -ptrace FOO.trc #0:#1000
                -ptrace BAR.trc @2000:
                -ptrace BLAH.trc :1500
                -ptrace UXXE.trc :
                -ptrace FOOBAR.trc @main:+278

  Branch predictor configuration examples for 2-level predictor:
    Configurations:   N, M, W, X
      N   # entries in first level (# of shift register(s))
      W   width of shift register(s)
      M   # entries in 2nd level (# of counters, or other FSM)
      X   (yes-1/no-0) xor history and address for 2nd level index
    Sample predictors:
      GAg     : 1, W, 2^W, 0
      GAp     : 1, W, M (M > 2^W), 0
      PAg     : N, W, 2^W, 0
      PAp     : N, W, M (M == 2^(N+W)), 0
      gshare  : 1, W, 2^W, 1
  Predictor `comb' combines a bimodal and a 2-level predictor.

  The cache config parameter <config> has the following format:

    <name>:<nsets>:<bsize>:<assoc>:<repl>

    <name>   - name of the cache being defined
    <nsets>  - number of sets in the cache
    <bsize>  - block size of the cache
    <assoc>  - associativity of the cache
    <repl>   - block replacement strategy, 'l'-LRU, 'f'-FIFO, 'r'-random

    Examples:   -cache:dl1 dl1:4096:32:1:l
                -dtlb dtlb:128:4096:32:r

  Cache levels can be unified by pointing a level of the instruction cache
  hierarchy at the data cache hiearchy using the "dl1" and "dl2" cache
  configuration arguments.  Most sensible combinations are supported, e.g.,

    A unified l2 cache (il2 is pointed at dl2):
      -cache:il1 il1:128:64:1:l -cache:il2 dl2
      -cache:dl1 dl1:256:32:1:l -cache:dl2 ul2:1024:64:2:l

    Or, a fully unified cache hierarchy (il1 pointed at dl1):
      -cache:il1 dl1
      -cache:dl1 ul1:256:32:1:l -cache:dl2 ul2:1024:64:2:l



sim: ** starting performance simulation **
fatal: STD unknown array overflow, increase MAX_STD_UNKNOWNS

sim: ** simulation statistics **
sim_num_insn                  34149 # total number of instructions committed
sim_num_refs                  16837 # total number of loads and stores committed
sim_num_loads                 10373 # total number of loads committed
sim_num_stores            6464.0000 # total number of stores committed
sim_num_branches               3925 # total number of branches committed
sim_elapsed_time                  1 # total simulation time in seconds
sim_inst_rate            34149.0000 # simulation speed (in insts/sec)
sim_total_insn                34149 # total number of instructions executed
sim_total_refs                16837 # total number of loads and stores executed
sim_total_loads               10373 # total number of loads executed
sim_total_stores          6464.0000 # total number of stores executed
sim_total_branches             3925 # total number of branches executed
sim_cycle                     59661 # total simulation time in cycles
sim_IPC                      0.5724 # instructions per cycle
sim_CPI                      1.7471 # cycles per instruction
sim_exec_BW                  0.5724 # total instructions (mis-spec + committed) per cycle
sim_IPB                      8.7004 # instruction per branch
IFQ_count                    524068 # cumulative IFQ occupancy
IFQ_fcount                      281 # cumulative IFQ full count
ifq_occupancy                8.7841 # avg IFQ occupancy (insn's)
ifq_rate                     0.5724 # avg IFQ dispatch rate (insn/cycle)
ifq_latency                 15.3465 # avg IFQ occupant latency (cycle's)
ifq_full                     0.0047 # fraction of time (cycle's) IFQ was full
RUU_count                   1141619 # cumulative RUU occupancy
RUU_fcount                      379 # cumulative RUU full count
ruu_occupancy               19.1351 # avg RUU occupancy (insn's)
ruu_rate                     0.5724 # avg RUU dispatch rate (insn/cycle)
ruu_latency                 33.4305 # avg RUU occupant latency (cycle's)
ruu_full                     0.0064 # fraction of time (cycle's) RUU was full
LSQ_count                    551010 # cumulative LSQ occupancy
LSQ_fcount                        0 # cumulative LSQ full count
lsq_occupancy                9.2357 # avg LSQ occupancy (insn's)
lsq_rate                     0.5724 # avg LSQ dispatch rate (insn/cycle)
lsq_latency                 16.1355 # avg LSQ occupant latency (cycle's)
lsq_full                     0.0000 # fraction of time (cycle's) LSQ was full
sim_slip                    1719050 # total number of slip cycles
avg_sim_slip                50.3397 # the average slip between issue and retirement
il1.accesses                 395270 # total number of accesses
il1.hits                     392310 # total number of hits
il1.misses                     2960 # total number of misses
il1.replacements               2704 # total number of replacements
il1.writebacks                    0 # total number of writebacks
il1.invalidations                 0 # total number of invalidations
il1.miss_rate                0.0075 # miss rate (i.e., misses/ref)
il1.repl_rate                0.0068 # replacement rate (i.e., repls/ref)
il1.wb_rate                  0.0000 # writeback rate (i.e., wrbks/ref)
il1.inv_rate                 0.0000 # invalidation rate (i.e., invs/ref)
dl1.accesses                  14757 # total number of accesses
dl1.hits                      14517 # total number of hits
dl1.misses                      240 # total number of misses
dl1.replacements                 48 # total number of replacements
dl1.writebacks                   15 # total number of writebacks
dl1.invalidations                 0 # total number of invalidations
dl1.miss_rate                0.0163 # miss rate (i.e., misses/ref)
dl1.repl_rate                0.0033 # replacement rate (i.e., repls/ref)
dl1.wb_rate                  0.0010 # writeback rate (i.e., wrbks/ref)
dl1.inv_rate                 0.0000 # invalidation rate (i.e., invs/ref)
dl2.accesses                   3215 # total number of accesses
dl2.hits                       2520 # total number of hits
dl2.misses                      695 # total number of misses
dl2.replacements                  4 # total number of replacements
dl2.writebacks                    0 # total number of writebacks
dl2.invalidations                 0 # total number of invalidations
dl2.miss_rate                0.2162 # miss rate (i.e., misses/ref)
dl2.repl_rate                0.0012 # replacement rate (i.e., repls/ref)
dl2.wb_rate                  0.0000 # writeback rate (i.e., wrbks/ref)
dl2.inv_rate                 0.0000 # invalidation rate (i.e., invs/ref)
itlb.accesses                395270 # total number of accesses
itlb.hits                    395243 # total number of hits
itlb.misses                      27 # total number of misses
itlb.replacements                 0 # total number of replacements
itlb.writebacks                   0 # total number of writebacks
itlb.invalidations                0 # total number of invalidations
itlb.miss_rate               0.0001 # miss rate (i.e., misses/ref)
itlb.repl_rate               0.0000 # replacement rate (i.e., repls/ref)
itlb.wb_rate                 0.0000 # writeback rate (i.e., wrbks/ref)
itlb.inv_rate                0.0000 # invalidation rate (i.e., invs/ref)
dtlb.accesses                 16662 # total number of accesses
dtlb.hits                     16624 # total number of hits
dtlb.misses                      38 # total number of misses
dtlb.replacements                 0 # total number of replacements
dtlb.writebacks                   0 # total number of writebacks
dtlb.invalidations                0 # total number of invalidations
dtlb.miss_rate               0.0023 # miss rate (i.e., misses/ref)
dtlb.repl_rate               0.0000 # replacement rate (i.e., repls/ref)
dtlb.wb_rate                 0.0000 # writeback rate (i.e., wrbks/ref)
dtlb.inv_rate                0.0000 # invalidation rate (i.e., invs/ref)
rename_power           128069426.1469 # total power usage of rename unit
bpred_power             185912.6450 # total power usage of bpred unit
window_power           13073557917.8530 # total power usage of instruction window
lsq_power              9696301.5009 # total power usage of load/store queue
regfile_power          799499997.4127 # total power usage of arch. regfile
icache_power            180931.7783 # total power usage of icache
dcache_power           1536604.3880 # total power usage of dcache
dcache2_power           185126.6972 # total power usage of dcache2
alu_power              2260098.9313 # total power usage of alu
falu_power             1704042.8450 # total power usage of falu
resultbus_power        11433481474.8973 # total power usage of resultbus
clock_power            95751405.9717 # total power usage of clock
avg_rename_power          2146.6188 # avg power usage of rename unit
avg_bpred_power              3.1162 # avg power usage of bpred unit
avg_window_power        219130.7205 # avg power usage of instruction window
avg_lsq_power              162.5233 # avg power usage of lsq
avg_regfile_power        13400.7140 # avg power usage of arch. regfile
avg_icache_power             3.0327 # avg power usage of icache
avg_dcache_power            25.7556 # avg power usage of dcache
avg_dcache2_power            3.1030 # avg power usage of dcache2
avg_alu_power               37.8824 # avg power usage of alu
avg_falu_power              28.5621 # avg power usage of falu
avg_resultbus_power     191640.7951 # avg power usage of resultbus
avg_clock_power           1604.9246 # avg power usage of clock
fetch_stage_power       366844.4233 # total power usage of fetch stage
dispatch_stage_power   128069426.1469 # total power usage of dispatch stage
issue_stage_power      24520717524.2677 # total power usage of issue stage
avg_fetch_power              6.1488 # average power of fetch unit per cycle
avg_dispatch_power        2146.6188 # average power of dispatch unit per cycle
avg_issue_power         411000.7798 # average power of issue unit per cycle
total_power            25544405198.2222 # total power per cycle
avg_total_power_cycle   428159.1860 # average total power per cycle
avg_total_power_cycle_nofp_nod2  428127.5210 # average total power per cycle
avg_total_power_insn    748027.9129 # average total power per insn
avg_total_power_insn_nofp_nod2  747972.5915 # average total power per insn
rename_power_cc1       6107130.5776 # total power usage of rename unit_cc1
bpred_power_cc1              0.0000 # total power usage of bpred unit_cc1
window_power_cc1       1526557734.4778 # total power usage of instruction window_cc1
lsq_power_cc1           534148.8257 # total power usage of lsq_cc1
regfile_power_cc1      66876441.7062 # total power usage of arch. regfile_cc1
icache_power_cc1          9586.2515 # total power usage of icache_cc1
dcache_power_cc1        111431.5698 # total power usage of dcache_cc1
dcache2_power_cc1         9734.0381 # total power usage of dcache2_cc1
alu_power_cc1           116505.6666 # total power usage of alu_cc1
resultbus_power_cc1    1233028853.0539 # total power usage of resultbus_cc1
clock_power_cc1        4090178.9500 # total power usage of clock_cc1
avg_rename_power_cc1       102.3639 # avg power usage of rename unit_cc1
avg_bpred_power_cc1          0.0000 # avg power usage of bpred unit_cc1
avg_window_power_cc1     25587.1966 # avg power usage of instruction window_cc1
avg_lsq_power_cc1            8.9531 # avg power usage of lsq_cc1
avg_regfile_power_cc1     1120.9407 # avg power usage of arch. regfile_cc1
avg_icache_power_cc1         0.1607 # avg power usage of icache_cc1
avg_dcache_power_cc1         1.8677 # avg power usage of dcache_cc1
avg_dcache2_power_cc1        0.1632 # avg power usage of dcache2_cc1
avg_alu_power_cc1            1.9528 # avg power usage of alu_cc1
avg_resultbus_power_cc1   20667.2509 # avg power usage of resultbus_cc1
avg_clock_power_cc1         68.5570 # avg power usage of clock_cc1
fetch_stage_power_cc1     9586.2515 # total power usage of fetch stage_cc1
dispatch_stage_power_cc1 6107130.5776 # total power usage of dispatch stage_cc1
issue_stage_power_cc1  2760358407.6318 # total power usage of issue stage_cc1
avg_fetch_power_cc1          0.1607 # average power of fetch unit per cycle_cc1
avg_dispatch_power_cc1     102.3639 # average power of dispatch unit per cycle_cc1
avg_issue_power_cc1      46267.3842 # average power of issue unit per cycle_cc1
total_power_cycle_cc1  2837441745.1172 # total power per cycle_cc1
avg_total_power_cycle_cc1   47559.4064 # average total power per cycle_cc1
avg_total_power_insn_cc1   83090.0391 # average total power per insn_cc1
rename_power_cc2        143173.6064 # total power usage of rename unit_cc2
bpred_power_cc2              0.0000 # total power usage of bpred unit_cc2
window_power_cc2       20834809.8245 # total power usage of instruction window_cc2
lsq_power_cc2           186971.8984 # total power usage of lsq_cc2
regfile_power_cc2       351610.7742 # total power usage of arch. regfile_cc2
icache_power_cc2          9586.2515 # total power usage of icache_cc2
dcache_power_cc2         47509.4093 # total power usage of dcache_cc2
dcache2_power_cc2         1247.0088 # total power usage of dcache2_cc2
alu_power_cc2            50969.0494 # total power usage of alu_cc2
resultbus_power_cc2    14211292.5287 # total power usage of resultbus_cc2
clock_power_cc2          38107.6833 # total power usage of clock_cc2
avg_rename_power_cc2         2.3998 # avg power usage of rename unit_cc2
avg_bpred_power_cc2          0.0000 # avg power usage of bpred unit_cc2
avg_window_power_cc2       349.2199 # avg power usage of instruction window_cc2
avg_lsq_power_cc2            3.1339 # avg power usage of instruction lsq_cc2
avg_regfile_power_cc2        5.8935 # avg power usage of arch. regfile_cc2
avg_icache_power_cc2         0.1607 # avg power usage of icache_cc2
avg_dcache_power_cc2         0.7963 # avg power usage of dcache_cc2
avg_dcache2_power_cc2        0.0209 # avg power usage of dcache2_cc2
avg_alu_power_cc2            0.8543 # avg power usage of alu_cc2
avg_resultbus_power_cc2     238.2007 # avg power usage of resultbus_cc2
avg_clock_power_cc2          0.6387 # avg power usage of clock_cc2
fetch_stage_power_cc2     9586.2515 # total power usage of fetch stage_cc2
dispatch_stage_power_cc2  143173.6064 # total power usage of dispatch stage_cc2
issue_stage_power_cc2  35332799.7192 # total power usage of issue stage_cc2
avg_fetch_power_cc2          0.1607 # average power of fetch unit per cycle_cc2
avg_dispatch_power_cc2       2.3998 # average power of dispatch unit per cycle_cc2
avg_issue_power_cc2        592.2261 # average power of issue unit per cycle_cc2
total_power_cycle_cc2  35875278.0346 # total power per cycle_cc2
avg_total_power_cycle_cc2     601.3188 # average total power per cycle_cc2
avg_total_power_insn_cc2    1050.5513 # average total power per insn_cc2
rename_power_cc3       12339403.1634 # total power usage of rename unit_cc3
bpred_power_cc3          18591.2645 # total power usage of bpred unit_cc3
window_power_cc3       1154711180.9180 # total power usage of instruction window_cc3
lsq_power_cc3          1100214.7751 # total power usage of lsq_cc3
regfile_power_cc3      72799890.8233 # total power usage of arch. regfile_cc3
icache_power_cc3         26720.8042 # total power usage of icache_cc3
dcache_power_cc3        190161.9080 # total power usage of dcache_cc3
dcache2_power_cc3        18786.2747 # total power usage of dcache2_cc3
alu_power_cc3           265328.3759 # total power usage of alu_cc3
resultbus_power_cc3    1026036362.3582 # total power usage of resultbus_cc3
clock_power_cc3        9163445.7636 # total power usage of clock_cc3
avg_rename_power_cc3       206.8253 # avg power usage of rename unit_cc3
avg_bpred_power_cc3          0.3116 # avg power usage of bpred unit_cc3
avg_window_power_cc3     19354.5395 # avg power usage of instruction window_cc3
avg_lsq_power_cc3           18.4411 # avg power usage of instruction lsq_cc3
avg_regfile_power_cc3     1220.2258 # avg power usage of arch. regfile_cc3
avg_icache_power_cc3         0.4479 # avg power usage of icache_cc3
avg_dcache_power_cc3         3.1874 # avg power usage of dcache_cc3
avg_dcache2_power_cc3        0.3149 # avg power usage of dcache2_cc3
avg_alu_power_cc3            4.4473 # avg power usage of alu_cc3
avg_resultbus_power_cc3   17197.7735 # avg power usage of resultbus_cc3
avg_clock_power_cc3        153.5919 # avg power usage of clock_cc3
fetch_stage_power_cc3    45312.0687 # total power usage of fetch stage_cc3
dispatch_stage_power_cc3 12339403.1634 # total power usage of dispatch stage_cc3
issue_stage_power_cc3  2182322034.6098 # total power usage of issue stage_cc3
avg_fetch_power_cc3          0.7595 # average power of fetch unit per cycle_cc3
avg_dispatch_power_cc3     206.8253 # average power of dispatch unit per cycle_cc3
avg_issue_power_cc3      36578.7036 # average power of issue unit per cycle_cc3
total_power_cycle_cc3  2276670086.4287 # total power per cycle_cc3
avg_total_power_cycle_cc3   38160.1060 # average total power per cycle_cc3
avg_total_power_insn_cc3   66668.7190 # average total power per insn_cc3
total_rename_access           34149 # total number accesses of rename unit
total_bpred_access                0 # total number accesses of bpred unit
total_window_access          129717 # total number accesses of instruction window
total_lsq_access              18644 # total number accesses of load/store queue
total_regfile_access          45664 # total number accesses of arch. regfile
total_icache_access          395270 # total number accesses of icache
total_dcache_access           14757 # total number accesses of dcache
total_dcache2_access           3215 # total number accesses of dcache2
total_alu_access              34052 # total number accesses of alu
total_resultbus_access        40499 # total number accesses of resultbus
avg_rename_access            0.5724 # avg number accesses of rename unit
avg_bpred_access             0.0000 # avg number accesses of bpred unit
avg_window_access            2.1742 # avg number accesses of instruction window
avg_lsq_access               0.3125 # avg number accesses of lsq
avg_regfile_access           0.7654 # avg number accesses of arch. regfile
avg_icache_access            6.6253 # avg number accesses of icache
avg_dcache_access            0.2473 # avg number accesses of dcache
avg_dcache2_access           0.0539 # avg number accesses of dcache2
avg_alu_access               0.5708 # avg number accesses of alu
avg_resultbus_access         0.6788 # avg number accesses of resultbus
max_rename_access                70 # max number accesses of rename unit
max_bpred_access                  0 # max number accesses of bpred unit
max_window_access               135 # max number accesses of instruction window
max_lsq_access                   24 # max number accesses of load/store queue
max_regfile_access              163 # max number accesses of arch. regfile
max_icache_access               512 # max number accesses of icache
max_dcache_access                15 # max number accesses of dcache
max_dcache2_access                5 # max number accesses of dcache2
max_alu_access                   17 # max number accesses of alu
max_resultbus_access             21 # max number accesses of resultbus
max_cycle_power_cc1     407585.1613 # maximum cycle power usage of cc1
max_cycle_power_cc2      19233.8416 # maximum cycle power usage of cc2
max_cycle_power_cc3      42818.3480 # maximum cycle power usage of cc3
sim_invalid_addrs                 0 # total non-speculative bogus addresses seen (debug var)
ld_text_base           0x0120000000 # program text (code) segment base
ld_text_size                 794624 # program text (code) size in bytes
ld_data_base           0x0140000000 # program initialized data segment base
ld_data_size                 216592 # program init'ed `.data' and uninit'ed `.bss' size in bytes
ld_stack_base          0x011ff9b000 # program stack segment base (highest address in stack)
ld_stack_size                 16384 # program initial stack size
ld_prog_entry          0x012009cb24 # program entry point (initial PC)
ld_environ_base        0x011ff955d0 # program environment base address address
ld_target_big_endian              0 # target executable endian-ness, non-zero if big endian
mem.page_count                  163 # total number of pages allocated
mem.page_mem                  1304k # total size of memory pages allocated
mem.ptab_misses                 259 # total first level page table misses
mem.ptab_accesses           3691708 # total page table accesses
mem.ptab_miss_rate           0.0001 # first level page table miss rate

