sim-outorder: SimpleScalar/Alpha Tool Set version 3.0 of August, 2003.
Copyright (c) 1994-2003 by Todd M. Austin, Ph.D. and SimpleScalar, LLC.
All Rights Reserved. This version of SimpleScalar is licensed for academic
non-commercial use.  No portion of this work may be used by any commercial
entity, or for any commercial purpose, without the prior written permission
of SimpleScalar, LLC (info@simplescalar.com).


Processor Parameters:
Issue Width: 512
Window Size: 512
Number of Virtual Registers: 32
Number of Physical Registers: 512
Datapath Width: 64
Total Power Consumption: 428161
Branch Predictor Power Consumption: 3.11615  (0.000728%)
 branch target buffer power (W): 2.49493
 local predict power (W): 0.354432
 global predict power (W): 0.0996078
 chooser power (W): 0.0702439
 RAS power (W): 0.0969383
Rename Logic Power Consumption: 2146.62  (0.501%)
 Instruction Decode Power (W): 2.04692
 RAT decode_power (W): 14.5298
 RAT wordline_power (W): 143.664
 RAT bitline_power (W): 1748.57
 DCL Comparators (W): 237.813
Instruction Window Power Consumption: 219131  (51.2%)
 tagdrive (W): 20067.6
 tagmatch (W): 4162.93
 Selection Logic (W): 58.7548
 decode_power (W): 321.155
 wordline_power (W): 983.25
 bitline_power (W): 193537
Load/Store Queue Power Consumption: 162.523  (0.038%)
 tagdrive (W): 82.7366
 tagmatch (W): 30.9028
 decode_power (W): 3.34536
 wordline_power (W): 0.139808
 bitline_power (W): 45.3986
Arch. Register File Power Consumption: 13400.7  (3.13%)
 decode_power (W): 14.5298
 wordline_power (W): 983.25
 bitline_power (W): 12402.9
Result Bus Power Consumption: 191641  (44.8%)
Total Clock Power: 1604.92  (0.375%)
Int ALU Power: 9.32026  (0.00218%)
FP ALU Power: 28.5621  (0.00667%)
Instruction Cache Power Consumption: 2.76773  (0.000646%)
 decode_power (W): 0.151353
 wordline_power (W): 0.180479
 bitline_power (W): 1.42251
 senseamp_power (W): 0.768
 tagarray_power (W): 0.245382
Itlb_power (W): 0.264936 (6.19e-05%)
Data Cache Power Consumption: 22.1418  (0.00517%)
 decode_power (W): 1.21082
 wordline_power (W): 1.44383
 bitline_power (W): 11.3801
 senseamp_power (W): 6.144
 tagarray_power (W): 1.96306
Dtlb_power (W): 3.61376 (0.000844%)
Level 2 Cache Power Consumption: 3.10298 (0.000725%)
 decode_power (W): 0.19487
 wordline_power (W): 0.0430878
 bitline_power (W): 1.77274
 senseamp_power (W): 0.192
 tagarray_power (W): 0.900275
sim: loading EIO file: ../benchmarks/252.eon.kajiya-ref.eio.gz
sim: command line: ./sim-outorder -config ../configs/current.config ../benchmarks/252.eon.kajiya-ref.eio.gz 

sim: simulation started @ Tue Nov 24 14:07:22 2015, options follow:

sim-outorder: This simulator implements a very detailed out-of-order issue
superscalar processor with a two-level memory system and speculative
execution support.  This simulator is a performance simulator, tracking the
latency of all pipeline operations.

# -config                     # load configuration from a file
# -dumpconfig                 # dump configuration to a file
# -h                    false # print help message    
# -v                    false # verbose operation     
# -d                    false # enable debug message  
# -i                    false # start in Dlite debugger
-seed                       1 # random number generator seed (0 for timer seed)
# -q                    false # initialize and terminate immediately
# -chkpt               <null> # restore EIO trace execution from <fname>
# -redir:sim     ../results/31_23_max/252.eon.kajiya-ref.eio.gz.out # redirect simulator output to file (non-interactive only)
# -redir:prog       /dev/null # redirect simulated program output to file
-nice                       0 # simulator scheduling priority
-freq            600000000.0000 # frequency             
-max:inst           100000000 # maximum number of inst's to execute
-fastfwd                    0 # number of insts skipped before timing starts
# -ptrace              <null> # generate pipetrace, i.e., <fname|stdout|stderr> <range>
-fetch:ifqsize            512 # instruction fetch queue size (in insts)
-fetch:mplat               15 # extra branch mis-prediction latency
-fetch:speed                1 # speed of front-end of machine relative to execution core
-bpred                perfect # branch predictor type {nottaken|taken|perfect|bimod|2lev|comb}
-bpred:bimod     2048 # bimodal predictor config (<table size>)
-bpred:2lev      1 8192 8 0 # 2-level predictor config (<l1size> <l2size> <hist_size> <xor>)
-bpred:comb      1024 # combining predictor config (<meta_table_size>)
-bpred:ras                  8 # return address stack size (0 for no return stack)
-bpred:btb       512 4 # BTB config (<num_sets> <associativity>)
# -bpred:spec_update       <null> # speculative predictors update in {ID|WB} (default non-spec)
-decode:width             512 # instruction decode B/W (insts/cycle)
-issue:width              512 # instruction issue B/W (insts/cycle)
-issue:inorder          false # run pipeline with in-order issue
-issue:wrongpath         true # issue instructions down wrong execution paths
-commit:width             512 # instruction commit B/W (insts/cycle)
-ruu:size                 512 # register update unit (RUU) size
-lsq:size                 512 # load/store queue (LSQ) size
-cache:dl1       dl1:32:64:8:f # l1 data cache config, i.e., {<config>|none}
-cache:dl1lat               1 # l1 data cache hit latency (in cycles)
-cache:dl2       dl2:256:64:8:f # l2 data cache config, i.e., {<config>|none}
-cache:dl2lat               2 # l2 data cache hit latency (in cycles)
-cache:il1       il1:32:64:8:f # l1 inst cache config, i.e., {<config>|dl1|dl2|none}
-cache:il1lat               1 # l1 instruction cache hit latency (in cycles)
-cache:il2                dl2 # l2 instruction cache config, i.e., {<config>|dl2|none}
-cache:il2lat               2 # l2 instruction cache hit latency (in cycles)
-cache:flush            false # flush caches on system calls
-cache:icompress        false # convert 64-bit inst addresses to 32-bit inst equivalents
-mem:lat         103 1 # memory access latency (<first_chunk> <inter_chunk>)
-mem:width                  8 # memory access bus width (in bytes)
-tlb:itlb        itlb:16:4096:4:l # instruction TLB config, i.e., {<config>|none}
-tlb:dtlb        dtlb:32:4096:4:l # data TLB config, i.e., {<config>|none}
-tlb:lat                   30 # inst/data TLB miss latency (in cycles)
-res:ialu                   8 # total number of integer ALU's available
-res:imult                  8 # total number of integer multiplier/dividers available
-res:memport                8 # total number of memory system ports available (to CPU)
-res:fpalu                  8 # total number of floating point ALU's available
-res:fpmult                 8 # total number of floating point multiplier/dividers available
# -pcstat              <null> # profile stat(s) against text addr's (mult uses ok)
-bugcompat              false # operate in backward-compatible bugs mode (for testing only)

  Pipetrace range arguments are formatted as follows:

    {{@|#}<start>}:{{@|#|+}<end>}

  Both ends of the range are optional, if neither are specified, the entire
  execution is traced.  Ranges that start with a `@' designate an address
  range to be traced, those that start with an `#' designate a cycle count
  range.  All other range values represent an instruction count range.  The
  second argument, if specified with a `+', indicates a value relative
  to the first argument, e.g., 1000:+100 == 1000:1100.  Program symbols may
  be used in all contexts.

    Examples:   -ptrace FOO.trc #0:#1000
                -ptrace BAR.trc @2000:
                -ptrace BLAH.trc :1500
                -ptrace UXXE.trc :
                -ptrace FOOBAR.trc @main:+278

  Branch predictor configuration examples for 2-level predictor:
    Configurations:   N, M, W, X
      N   # entries in first level (# of shift register(s))
      W   width of shift register(s)
      M   # entries in 2nd level (# of counters, or other FSM)
      X   (yes-1/no-0) xor history and address for 2nd level index
    Sample predictors:
      GAg     : 1, W, 2^W, 0
      GAp     : 1, W, M (M > 2^W), 0
      PAg     : N, W, 2^W, 0
      PAp     : N, W, M (M == 2^(N+W)), 0
      gshare  : 1, W, 2^W, 1
  Predictor `comb' combines a bimodal and a 2-level predictor.

  The cache config parameter <config> has the following format:

    <name>:<nsets>:<bsize>:<assoc>:<repl>

    <name>   - name of the cache being defined
    <nsets>  - number of sets in the cache
    <bsize>  - block size of the cache
    <assoc>  - associativity of the cache
    <repl>   - block replacement strategy, 'l'-LRU, 'f'-FIFO, 'r'-random

    Examples:   -cache:dl1 dl1:4096:32:1:l
                -dtlb dtlb:128:4096:32:r

  Cache levels can be unified by pointing a level of the instruction cache
  hierarchy at the data cache hiearchy using the "dl1" and "dl2" cache
  configuration arguments.  Most sensible combinations are supported, e.g.,

    A unified l2 cache (il2 is pointed at dl2):
      -cache:il1 il1:128:64:1:l -cache:il2 dl2
      -cache:dl1 dl1:256:32:1:l -cache:dl2 ul2:1024:64:2:l

    Or, a fully unified cache hierarchy (il1 pointed at dl1):
      -cache:il1 dl1
      -cache:dl1 ul1:256:32:1:l -cache:dl2 ul2:1024:64:2:l



sim: ** starting performance simulation **
fatal: STD unknown array overflow, increase MAX_STD_UNKNOWNS

sim: ** simulation statistics **
sim_num_insn                3766789 # total number of instructions committed
sim_num_refs                1189980 # total number of loads and stores committed
sim_num_loads                760696 # total number of loads committed
sim_num_stores          429284.0000 # total number of stores committed
sim_num_branches             522086 # total number of branches committed
sim_elapsed_time                 14 # total simulation time in seconds
sim_inst_rate           269056.3571 # simulation speed (in insts/sec)
sim_total_insn              3766789 # total number of instructions executed
sim_total_refs              1189980 # total number of loads and stores executed
sim_total_loads              760696 # total number of loads executed
sim_total_stores        429284.0000 # total number of stores executed
sim_total_branches           522086 # total number of branches executed
sim_cycle                   1870817 # total simulation time in cycles
sim_IPC                      2.0134 # instructions per cycle
sim_CPI                      0.4967 # cycles per instruction
sim_exec_BW                  2.0134 # total instructions (mis-spec + committed) per cycle
sim_IPB                      7.2149 # instruction per branch
IFQ_count                 239519123 # cumulative IFQ occupancy
IFQ_fcount                   328712 # cumulative IFQ full count
ifq_occupancy              128.0292 # avg IFQ occupancy (insn's)
ifq_rate                     2.0134 # avg IFQ dispatch rate (insn/cycle)
ifq_latency                 63.5871 # avg IFQ occupant latency (cycle's)
ifq_full                     0.1757 # fraction of time (cycle's) IFQ was full
RUU_count                  83787060 # cumulative RUU occupancy
RUU_fcount                    55584 # cumulative RUU full count
ruu_occupancy               44.7863 # avg RUU occupancy (insn's)
ruu_rate                     2.0134 # avg RUU dispatch rate (insn/cycle)
ruu_latency                 22.2436 # avg RUU occupant latency (cycle's)
ruu_full                     0.0297 # fraction of time (cycle's) RUU was full
LSQ_count                  21608799 # cumulative LSQ occupancy
LSQ_fcount                        0 # cumulative LSQ full count
lsq_occupancy               11.5505 # avg LSQ occupancy (insn's)
lsq_rate                     2.0134 # avg LSQ dispatch rate (insn/cycle)
lsq_latency                  5.7367 # avg LSQ occupant latency (cycle's)
lsq_full                     0.0000 # fraction of time (cycle's) LSQ was full
sim_slip                  110280759 # total number of slip cycles
avg_sim_slip                29.2771 # the average slip between issue and retirement
il1.accesses              122057245 # total number of accesses
il1.hits                  121753092 # total number of hits
il1.misses                   304153 # total number of misses
il1.replacements             303897 # total number of replacements
il1.writebacks                    0 # total number of writebacks
il1.invalidations                 0 # total number of invalidations
il1.miss_rate                0.0025 # miss rate (i.e., misses/ref)
il1.repl_rate                0.0025 # replacement rate (i.e., repls/ref)
il1.wb_rate                  0.0000 # writeback rate (i.e., wrbks/ref)
il1.inv_rate                 0.0000 # invalidation rate (i.e., invs/ref)
dl1.accesses                1115017 # total number of accesses
dl1.hits                    1108918 # total number of hits
dl1.misses                     6099 # total number of misses
dl1.replacements               5843 # total number of replacements
dl1.writebacks                 3914 # total number of writebacks
dl1.invalidations                 0 # total number of invalidations
dl1.miss_rate                0.0055 # miss rate (i.e., misses/ref)
dl1.repl_rate                0.0052 # replacement rate (i.e., repls/ref)
dl1.wb_rate                  0.0035 # writeback rate (i.e., wrbks/ref)
dl1.inv_rate                 0.0000 # invalidation rate (i.e., invs/ref)
dl2.accesses                 314166 # total number of accesses
dl2.hits                     301465 # total number of hits
dl2.misses                    12701 # total number of misses
dl2.replacements              10653 # total number of replacements
dl2.writebacks                 2729 # total number of writebacks
dl2.invalidations                 0 # total number of invalidations
dl2.miss_rate                0.0404 # miss rate (i.e., misses/ref)
dl2.repl_rate                0.0339 # replacement rate (i.e., repls/ref)
dl2.wb_rate                  0.0087 # writeback rate (i.e., wrbks/ref)
dl2.inv_rate                 0.0000 # invalidation rate (i.e., invs/ref)
itlb.accesses             122057245 # total number of accesses
itlb.hits                 122056965 # total number of hits
itlb.misses                     280 # total number of misses
itlb.replacements               216 # total number of replacements
itlb.writebacks                   0 # total number of writebacks
itlb.invalidations                0 # total number of invalidations
itlb.miss_rate               0.0000 # miss rate (i.e., misses/ref)
itlb.repl_rate               0.0000 # replacement rate (i.e., repls/ref)
itlb.wb_rate                 0.0000 # writeback rate (i.e., wrbks/ref)
itlb.inv_rate                0.0000 # invalidation rate (i.e., invs/ref)
dtlb.accesses               1189784 # total number of accesses
dtlb.hits                   1189684 # total number of hits
dtlb.misses                     100 # total number of misses
dtlb.replacements                 1 # total number of replacements
dtlb.writebacks                   0 # total number of writebacks
dtlb.invalidations                0 # total number of invalidations
dtlb.miss_rate               0.0001 # miss rate (i.e., misses/ref)
dtlb.repl_rate               0.0000 # replacement rate (i.e., repls/ref)
dtlb.wb_rate                 0.0000 # writeback rate (i.e., wrbks/ref)
dtlb.inv_rate                0.0000 # invalidation rate (i.e., invs/ref)
rename_power           4015931003.6795 # total power usage of rename unit
bpred_power            5829747.0162 # total power usage of bpred unit
window_power           409953477180.6695 # total power usage of instruction window
lsq_power              304051318.0272 # total power usage of load/store queue
regfile_power          25070283545.5719 # total power usage of arch. regfile
icache_power           5673559.7238 # total power usage of icache
dcache_power           48183999.7869 # total power usage of dcache
dcache2_power          5805101.6958 # total power usage of dcache2
alu_power              70870945.8818 # total power usage of alu
falu_power             53434443.3232 # total power usage of falu
resultbus_power        358524857305.4609 # total power usage of resultbus
clock_power            3002520206.9013 # total power usage of clock
avg_rename_power          2146.6188 # avg power usage of rename unit
avg_bpred_power              3.1162 # avg power usage of bpred unit
avg_window_power        219130.7205 # avg power usage of instruction window
avg_lsq_power              162.5233 # avg power usage of lsq
avg_regfile_power        13400.7140 # avg power usage of arch. regfile
avg_icache_power             3.0327 # avg power usage of icache
avg_dcache_power            25.7556 # avg power usage of dcache
avg_dcache2_power            3.1030 # avg power usage of dcache2
avg_alu_power               37.8824 # avg power usage of alu
avg_falu_power              28.5621 # avg power usage of falu
avg_resultbus_power     191640.7951 # avg power usage of resultbus
avg_clock_power           1604.9246 # avg power usage of clock
fetch_stage_power      11503306.7400 # total power usage of fetch stage
dispatch_stage_power   4015931003.6795 # total power usage of dispatch stage
issue_stage_power      768907245851.5222 # total power usage of issue stage
avg_fetch_power              6.1488 # average power of fetch unit per cycle
avg_dispatch_power        2146.6188 # average power of dispatch unit per cycle
avg_issue_power         411000.7798 # average power of issue unit per cycle
total_power            801007483914.4150 # total power per cycle
avg_total_power_cycle   428159.1860 # average total power per cycle
avg_total_power_cycle_nofp_nod2  428127.5210 # average total power per cycle
avg_total_power_insn    212649.9477 # average total power per insn
avg_total_power_insn_nofp_nod2  212634.2209 # average total power per insn
rename_power_cc1       934702238.1040 # total power usage of rename unit_cc1
bpred_power_cc1              0.0000 # total power usage of bpred unit_cc1
window_power_cc1       181596130303.1641 # total power usage of instruction window_cc1
lsq_power_cc1          51644568.6865 # total power usage of lsq_cc1
regfile_power_cc1      9198696267.6931 # total power usage of arch. regfile_cc1
icache_power_cc1       1534312.7615 # total power usage of icache_cc1
dcache_power_cc1       11863866.0568 # total power usage of dcache_cc1
dcache2_power_cc1       958472.6771 # total power usage of dcache2_cc1
alu_power_cc1          9786703.8923 # total power usage of alu_cc1
resultbus_power_cc1    150122295922.1924 # total power usage of resultbus_cc1
clock_power_cc1        921200655.2997 # total power usage of clock_cc1
avg_rename_power_cc1       499.6225 # avg power usage of rename unit_cc1
avg_bpred_power_cc1          0.0000 # avg power usage of bpred unit_cc1
avg_window_power_cc1     97067.8213 # avg power usage of instruction window_cc1
avg_lsq_power_cc1           27.6054 # avg power usage of lsq_cc1
avg_regfile_power_cc1     4916.9407 # avg power usage of arch. regfile_cc1
avg_icache_power_cc1         0.8201 # avg power usage of icache_cc1
avg_dcache_power_cc1         6.3415 # avg power usage of dcache_cc1
avg_dcache2_power_cc1        0.5123 # avg power usage of dcache2_cc1
avg_alu_power_cc1            5.2312 # avg power usage of alu_cc1
avg_resultbus_power_cc1   80244.2441 # avg power usage of resultbus_cc1
avg_clock_power_cc1        492.4055 # avg power usage of clock_cc1
fetch_stage_power_cc1  1534312.7615 # total power usage of fetch stage_cc1
dispatch_stage_power_cc1 934702238.1040 # total power usage of dispatch stage_cc1
issue_stage_power_cc1  331792679836.6693 # total power usage of issue stage_cc1
avg_fetch_power_cc1          0.8201 # average power of fetch unit per cycle_cc1
avg_dispatch_power_cc1     499.6225 # average power of dispatch unit per cycle_cc1
avg_issue_power_cc1     177351.7559 # average power of issue unit per cycle_cc1
total_power_cycle_cc1  342848813310.5276 # total power per cycle_cc1
avg_total_power_cycle_cc1  183261.5447 # average total power per cycle_cc1
avg_total_power_insn_cc1   91018.8527 # average total power per insn_cc1
rename_power_cc2       15792695.7114 # total power usage of rename unit_cc2
bpred_power_cc2              0.0000 # total power usage of bpred unit_cc2
window_power_cc2       2194303159.5122 # total power usage of instruction window_cc2
lsq_power_cc2          13468697.4096 # total power usage of lsq_cc2
regfile_power_cc2      37716697.1900 # total power usage of arch. regfile_cc2
icache_power_cc2       1534312.7615 # total power usage of icache_cc2
dcache_power_cc2       3589740.3976 # total power usage of dcache_cc2
dcache2_power_cc2       121856.2251 # total power usage of dcache2_cc2
alu_power_cc2          5333316.5913 # total power usage of alu_cc2
resultbus_power_cc2    1405480303.4688 # total power usage of resultbus_cc2
clock_power_cc2        9685907.1736 # total power usage of clock_cc2
avg_rename_power_cc2         8.4416 # avg power usage of rename unit_cc2
avg_bpred_power_cc2          0.0000 # avg power usage of bpred unit_cc2
avg_window_power_cc2      1172.9117 # avg power usage of instruction window_cc2
avg_lsq_power_cc2            7.1994 # avg power usage of instruction lsq_cc2
avg_regfile_power_cc2       20.1605 # avg power usage of arch. regfile_cc2
avg_icache_power_cc2         0.8201 # avg power usage of icache_cc2
avg_dcache_power_cc2         1.9188 # avg power usage of dcache_cc2
avg_dcache2_power_cc2        0.0651 # avg power usage of dcache2_cc2
avg_alu_power_cc2            2.8508 # avg power usage of alu_cc2
avg_resultbus_power_cc2     751.2655 # avg power usage of resultbus_cc2
avg_clock_power_cc2          5.1774 # avg power usage of clock_cc2
fetch_stage_power_cc2  1534312.7615 # total power usage of fetch stage_cc2
dispatch_stage_power_cc2 15792695.7114 # total power usage of dispatch stage_cc2
issue_stage_power_cc2  3622297073.6044 # total power usage of issue stage_cc2
avg_fetch_power_cc2          0.8201 # average power of fetch unit per cycle_cc2
avg_dispatch_power_cc2       8.4416 # average power of dispatch unit per cycle_cc2
avg_issue_power_cc2       1936.2113 # average power of issue unit per cycle_cc2
total_power_cycle_cc2  3687026686.4409 # total power per cycle_cc2
avg_total_power_cycle_cc2    1970.8110 # average total power per cycle_cc2
avg_total_power_insn_cc2     978.8249 # average total power per insn_cc2
rename_power_cc3       323915572.2768 # total power usage of rename unit_cc3
bpred_power_cc3         582974.7016 # total power usage of bpred unit_cc3
window_power_cc3       22978807871.8136 # total power usage of instruction window_cc3
lsq_power_cc3          38540649.4350 # total power usage of lsq_cc3
regfile_power_cc3      1524915875.2211 # total power usage of arch. regfile_cc3
icache_power_cc3       1948237.4577 # total power usage of icache_cc3
dcache_power_cc3       7227027.5502 # total power usage of dcache_cc3
dcache2_power_cc3       606519.1657 # total power usage of dcache2_cc3
alu_power_cc3          11441740.7903 # total power usage of alu_cc3
resultbus_power_cc3    21244921136.8095 # total power usage of resultbus_cc3
clock_power_cc3        209217606.6154 # total power usage of clock_cc3
avg_rename_power_cc3       173.1412 # avg power usage of rename unit_cc3
avg_bpred_power_cc3          0.3116 # avg power usage of bpred unit_cc3
avg_window_power_cc3     12282.7662 # avg power usage of instruction window_cc3
avg_lsq_power_cc3           20.6010 # avg power usage of instruction lsq_cc3
avg_regfile_power_cc3      815.1069 # avg power usage of arch. regfile_cc3
avg_icache_power_cc3         1.0414 # avg power usage of icache_cc3
avg_dcache_power_cc3         3.8630 # avg power usage of dcache_cc3
avg_dcache2_power_cc3        0.3242 # avg power usage of dcache2_cc3
avg_alu_power_cc3            6.1159 # avg power usage of alu_cc3
avg_resultbus_power_cc3   11355.9590 # avg power usage of resultbus_cc3
avg_clock_power_cc3        111.8322 # avg power usage of clock_cc3
fetch_stage_power_cc3  2531212.1593 # total power usage of fetch stage_cc3
dispatch_stage_power_cc3 323915572.2768 # total power usage of dispatch stage_cc3
issue_stage_power_cc3  44281544945.5642 # total power usage of issue stage_cc3
avg_fetch_power_cc3          1.3530 # average power of fetch unit per cycle_cc3
avg_dispatch_power_cc3     173.1412 # average power of dispatch unit per cycle_cc3
avg_issue_power_cc3      23669.6293 # average power of issue unit per cycle_cc3
total_power_cycle_cc3  46342125211.8368 # total power per cycle_cc3
avg_total_power_cycle_cc3   24771.0627 # average total power per cycle_cc3
avg_total_power_insn_cc3   12302.8195 # average total power per insn_cc3
total_rename_access         3766789 # total number accesses of rename unit
total_bpred_access                0 # total number accesses of bpred unit
total_window_access        13376847 # total number accesses of instruction window
total_lsq_access            1264644 # total number accesses of load/store queue
total_regfile_access        4825177 # total number accesses of arch. regfile
total_icache_access       122057245 # total number accesses of icache
total_dcache_access         1115017 # total number accesses of dcache
total_dcache2_access         314166 # total number accesses of dcache2
total_alu_access            3730146 # total number accesses of alu
total_resultbus_access      4005304 # total number accesses of resultbus
avg_rename_access            2.0134 # avg number accesses of rename unit
avg_bpred_access             0.0000 # avg number accesses of bpred unit
avg_window_access            7.1503 # avg number accesses of instruction window
avg_lsq_access               0.6760 # avg number accesses of lsq
avg_regfile_access           2.5792 # avg number accesses of arch. regfile
avg_icache_access           65.2427 # avg number accesses of icache
avg_dcache_access            0.5960 # avg number accesses of dcache
avg_dcache2_access           0.1679 # avg number accesses of dcache2
avg_alu_access               1.9939 # avg number accesses of alu
avg_resultbus_access         2.1409 # avg number accesses of resultbus
max_rename_access               168 # max number accesses of rename unit
max_bpred_access                  0 # max number accesses of bpred unit
max_window_access               150 # max number accesses of instruction window
max_lsq_access                   61 # max number accesses of load/store queue
max_regfile_access              281 # max number accesses of arch. regfile
max_icache_access               512 # max number accesses of icache
max_dcache_access                15 # max number accesses of dcache
max_dcache2_access                9 # max number accesses of dcache2
max_alu_access                   20 # max number accesses of alu
max_resultbus_access             24 # max number accesses of resultbus
max_cycle_power_cc1     410880.2114 # maximum cycle power usage of cc1
max_cycle_power_cc2      24667.0927 # maximum cycle power usage of cc2
max_cycle_power_cc3      42824.4755 # maximum cycle power usage of cc3
sim_invalid_addrs                 0 # total non-speculative bogus addresses seen (debug var)
ld_text_base           0x0120000000 # program text (code) segment base
ld_text_size                 794624 # program text (code) size in bytes
ld_data_base           0x0140000000 # program initialized data segment base
ld_data_size                 216592 # program init'ed `.data' and uninit'ed `.bss' size in bytes
ld_stack_base          0x011ff9b000 # program stack segment base (highest address in stack)
ld_stack_size                 16384 # program initial stack size
ld_prog_entry          0x012002d410 # program entry point (initial PC)
ld_environ_base        0x011ff97000 # program environment base address address
ld_target_big_endian              0 # target executable endian-ness, non-zero if big endian
mem.page_count                  140 # total number of pages allocated
mem.page_mem                  1120k # total size of memory pages allocated
mem.ptab_misses                3375 # total first level page table misses
mem.ptab_accesses         262809210 # total page table accesses
mem.ptab_miss_rate           0.0000 # first level page table miss rate

