sim-outorder: SimpleScalar/Alpha Tool Set version 3.0 of August, 2003.
Copyright (c) 1994-2003 by Todd M. Austin, Ph.D. and SimpleScalar, LLC.
All Rights Reserved. This version of SimpleScalar is licensed for academic
non-commercial use.  No portion of this work may be used by any commercial
entity, or for any commercial purpose, without the prior written permission
of SimpleScalar, LLC (info@simplescalar.com).


Processor Parameters:
Issue Width: 512
Window Size: 512
Number of Virtual Registers: 32
Number of Physical Registers: 512
Datapath Width: 64
Total Power Consumption: 428161
Branch Predictor Power Consumption: 3.11615  (0.000728%)
 branch target buffer power (W): 2.49493
 local predict power (W): 0.354432
 global predict power (W): 0.0996078
 chooser power (W): 0.0702439
 RAS power (W): 0.0969383
Rename Logic Power Consumption: 2146.62  (0.501%)
 Instruction Decode Power (W): 2.04692
 RAT decode_power (W): 14.5298
 RAT wordline_power (W): 143.664
 RAT bitline_power (W): 1748.57
 DCL Comparators (W): 237.813
Instruction Window Power Consumption: 219131  (51.2%)
 tagdrive (W): 20067.6
 tagmatch (W): 4162.93
 Selection Logic (W): 58.7548
 decode_power (W): 321.155
 wordline_power (W): 983.25
 bitline_power (W): 193537
Load/Store Queue Power Consumption: 162.523  (0.038%)
 tagdrive (W): 82.7366
 tagmatch (W): 30.9028
 decode_power (W): 3.34536
 wordline_power (W): 0.139808
 bitline_power (W): 45.3986
Arch. Register File Power Consumption: 13400.7  (3.13%)
 decode_power (W): 14.5298
 wordline_power (W): 983.25
 bitline_power (W): 12402.9
Result Bus Power Consumption: 191641  (44.8%)
Total Clock Power: 1604.92  (0.375%)
Int ALU Power: 9.32026  (0.00218%)
FP ALU Power: 28.5621  (0.00667%)
Instruction Cache Power Consumption: 2.76773  (0.000646%)
 decode_power (W): 0.151353
 wordline_power (W): 0.180479
 bitline_power (W): 1.42251
 senseamp_power (W): 0.768
 tagarray_power (W): 0.245382
Itlb_power (W): 0.264936 (6.19e-05%)
Data Cache Power Consumption: 22.1418  (0.00517%)
 decode_power (W): 1.21082
 wordline_power (W): 1.44383
 bitline_power (W): 11.3801
 senseamp_power (W): 6.144
 tagarray_power (W): 1.96306
Dtlb_power (W): 3.61376 (0.000844%)
Level 2 Cache Power Consumption: 3.10298 (0.000725%)
 decode_power (W): 0.19487
 wordline_power (W): 0.0430878
 bitline_power (W): 1.77274
 senseamp_power (W): 0.192
 tagarray_power (W): 0.900275
sim: loading EIO file: ../benchmarks/300.twolf.spec_ref.eio.gz
sim: command line: ./sim-outorder -config ../configs/current.config ../benchmarks/300.twolf.spec_ref.eio.gz 

sim: simulation started @ Tue Nov 24 14:07:22 2015, options follow:

sim-outorder: This simulator implements a very detailed out-of-order issue
superscalar processor with a two-level memory system and speculative
execution support.  This simulator is a performance simulator, tracking the
latency of all pipeline operations.

# -config                     # load configuration from a file
# -dumpconfig                 # dump configuration to a file
# -h                    false # print help message    
# -v                    false # verbose operation     
# -d                    false # enable debug message  
# -i                    false # start in Dlite debugger
-seed                       1 # random number generator seed (0 for timer seed)
# -q                    false # initialize and terminate immediately
# -chkpt               <null> # restore EIO trace execution from <fname>
# -redir:sim     ../results/31_23_max/300.twolf.spec_ref.eio.gz.out # redirect simulator output to file (non-interactive only)
# -redir:prog       /dev/null # redirect simulated program output to file
-nice                       0 # simulator scheduling priority
-freq            600000000.0000 # frequency             
-max:inst           100000000 # maximum number of inst's to execute
-fastfwd                    0 # number of insts skipped before timing starts
# -ptrace              <null> # generate pipetrace, i.e., <fname|stdout|stderr> <range>
-fetch:ifqsize            512 # instruction fetch queue size (in insts)
-fetch:mplat               15 # extra branch mis-prediction latency
-fetch:speed                1 # speed of front-end of machine relative to execution core
-bpred                perfect # branch predictor type {nottaken|taken|perfect|bimod|2lev|comb}
-bpred:bimod     2048 # bimodal predictor config (<table size>)
-bpred:2lev      1 8192 8 0 # 2-level predictor config (<l1size> <l2size> <hist_size> <xor>)
-bpred:comb      1024 # combining predictor config (<meta_table_size>)
-bpred:ras                  8 # return address stack size (0 for no return stack)
-bpred:btb       512 4 # BTB config (<num_sets> <associativity>)
# -bpred:spec_update       <null> # speculative predictors update in {ID|WB} (default non-spec)
-decode:width             512 # instruction decode B/W (insts/cycle)
-issue:width              512 # instruction issue B/W (insts/cycle)
-issue:inorder          false # run pipeline with in-order issue
-issue:wrongpath         true # issue instructions down wrong execution paths
-commit:width             512 # instruction commit B/W (insts/cycle)
-ruu:size                 512 # register update unit (RUU) size
-lsq:size                 512 # load/store queue (LSQ) size
-cache:dl1       dl1:32:64:8:f # l1 data cache config, i.e., {<config>|none}
-cache:dl1lat               1 # l1 data cache hit latency (in cycles)
-cache:dl2       dl2:256:64:8:f # l2 data cache config, i.e., {<config>|none}
-cache:dl2lat               2 # l2 data cache hit latency (in cycles)
-cache:il1       il1:32:64:8:f # l1 inst cache config, i.e., {<config>|dl1|dl2|none}
-cache:il1lat               1 # l1 instruction cache hit latency (in cycles)
-cache:il2                dl2 # l2 instruction cache config, i.e., {<config>|dl2|none}
-cache:il2lat               2 # l2 instruction cache hit latency (in cycles)
-cache:flush            false # flush caches on system calls
-cache:icompress        false # convert 64-bit inst addresses to 32-bit inst equivalents
-mem:lat         103 1 # memory access latency (<first_chunk> <inter_chunk>)
-mem:width                  8 # memory access bus width (in bytes)
-tlb:itlb        itlb:16:4096:4:l # instruction TLB config, i.e., {<config>|none}
-tlb:dtlb        dtlb:32:4096:4:l # data TLB config, i.e., {<config>|none}
-tlb:lat                   30 # inst/data TLB miss latency (in cycles)
-res:ialu                   8 # total number of integer ALU's available
-res:imult                  8 # total number of integer multiplier/dividers available
-res:memport                8 # total number of memory system ports available (to CPU)
-res:fpalu                  8 # total number of floating point ALU's available
-res:fpmult                 8 # total number of floating point multiplier/dividers available
# -pcstat              <null> # profile stat(s) against text addr's (mult uses ok)
-bugcompat              false # operate in backward-compatible bugs mode (for testing only)

  Pipetrace range arguments are formatted as follows:

    {{@|#}<start>}:{{@|#|+}<end>}

  Both ends of the range are optional, if neither are specified, the entire
  execution is traced.  Ranges that start with a `@' designate an address
  range to be traced, those that start with an `#' designate a cycle count
  range.  All other range values represent an instruction count range.  The
  second argument, if specified with a `+', indicates a value relative
  to the first argument, e.g., 1000:+100 == 1000:1100.  Program symbols may
  be used in all contexts.

    Examples:   -ptrace FOO.trc #0:#1000
                -ptrace BAR.trc @2000:
                -ptrace BLAH.trc :1500
                -ptrace UXXE.trc :
                -ptrace FOOBAR.trc @main:+278

  Branch predictor configuration examples for 2-level predictor:
    Configurations:   N, M, W, X
      N   # entries in first level (# of shift register(s))
      W   width of shift register(s)
      M   # entries in 2nd level (# of counters, or other FSM)
      X   (yes-1/no-0) xor history and address for 2nd level index
    Sample predictors:
      GAg     : 1, W, 2^W, 0
      GAp     : 1, W, M (M > 2^W), 0
      PAg     : N, W, 2^W, 0
      PAp     : N, W, M (M == 2^(N+W)), 0
      gshare  : 1, W, 2^W, 1
  Predictor `comb' combines a bimodal and a 2-level predictor.

  The cache config parameter <config> has the following format:

    <name>:<nsets>:<bsize>:<assoc>:<repl>

    <name>   - name of the cache being defined
    <nsets>  - number of sets in the cache
    <bsize>  - block size of the cache
    <assoc>  - associativity of the cache
    <repl>   - block replacement strategy, 'l'-LRU, 'f'-FIFO, 'r'-random

    Examples:   -cache:dl1 dl1:4096:32:1:l
                -dtlb dtlb:128:4096:32:r

  Cache levels can be unified by pointing a level of the instruction cache
  hierarchy at the data cache hiearchy using the "dl1" and "dl2" cache
  configuration arguments.  Most sensible combinations are supported, e.g.,

    A unified l2 cache (il2 is pointed at dl2):
      -cache:il1 il1:128:64:1:l -cache:il2 dl2
      -cache:dl1 dl1:256:32:1:l -cache:dl2 ul2:1024:64:2:l

    Or, a fully unified cache hierarchy (il1 pointed at dl1):
      -cache:il1 dl1
      -cache:dl1 ul1:256:32:1:l -cache:dl2 ul2:1024:64:2:l



sim: ** starting performance simulation **

sim: ** simulation statistics **
sim_num_insn              100000000 # total number of instructions committed
sim_num_refs               32660933 # total number of loads and stores committed
sim_num_loads              25832932 # total number of loads committed
sim_num_stores         6828001.0000 # total number of stores committed
sim_num_branches           12122719 # total number of branches committed
sim_elapsed_time                393 # total simulation time in seconds
sim_inst_rate           254452.9262 # simulation speed (in insts/sec)
sim_total_insn            100000000 # total number of instructions executed
sim_total_refs             32660933 # total number of loads and stores executed
sim_total_loads            25832932 # total number of loads executed
sim_total_stores       6828001.0000 # total number of stores executed
sim_total_branches         12122719 # total number of branches executed
sim_cycle                 106850486 # total simulation time in cycles
sim_IPC                      0.9359 # instructions per cycle
sim_CPI                      1.0685 # cycles per instruction
sim_exec_BW                  0.9359 # total instructions (mis-spec + committed) per cycle
sim_IPB                      8.2490 # instruction per branch
IFQ_count               26558462185 # cumulative IFQ occupancy
IFQ_fcount                 47067638 # cumulative IFQ full count
ifq_occupancy              248.5572 # avg IFQ occupancy (insn's)
ifq_rate                     0.9359 # avg IFQ dispatch rate (insn/cycle)
ifq_latency                265.5846 # avg IFQ occupant latency (cycle's)
ifq_full                     0.4405 # fraction of time (cycle's) IFQ was full
RUU_count               40216145146 # cumulative RUU occupancy
RUU_fcount                 51371724 # cumulative RUU full count
ruu_occupancy              376.3777 # avg RUU occupancy (insn's)
ruu_rate                     0.9359 # avg RUU dispatch rate (insn/cycle)
ruu_latency                402.1615 # avg RUU occupant latency (cycle's)
ruu_full                     0.4808 # fraction of time (cycle's) RUU was full
LSQ_count               13369822490 # cumulative LSQ occupancy
LSQ_fcount                        0 # cumulative LSQ full count
lsq_occupancy              125.1265 # avg LSQ occupancy (insn's)
lsq_rate                     0.9359 # avg LSQ dispatch rate (insn/cycle)
lsq_latency                133.6982 # avg LSQ occupant latency (cycle's)
lsq_full                     0.0000 # fraction of time (cycle's) LSQ was full
sim_slip                53718480099 # total number of slip cycles
avg_sim_slip               537.1848 # the average slip between issue and retirement
il1.accesses             2371106846 # total number of accesses
il1.hits                 2365772475 # total number of hits
il1.misses                  5334371 # total number of misses
il1.replacements            5334115 # total number of replacements
il1.writebacks                    0 # total number of writebacks
il1.invalidations                 0 # total number of invalidations
il1.miss_rate                0.0022 # miss rate (i.e., misses/ref)
il1.repl_rate                0.0022 # replacement rate (i.e., repls/ref)
il1.wb_rate                  0.0000 # writeback rate (i.e., wrbks/ref)
il1.inv_rate                 0.0000 # invalidation rate (i.e., invs/ref)
dl1.accesses               30246455 # total number of accesses
dl1.hits                   27730927 # total number of hits
dl1.misses                  2515528 # total number of misses
dl1.replacements            2515272 # total number of replacements
dl1.writebacks               854177 # total number of writebacks
dl1.invalidations                 0 # total number of invalidations
dl1.miss_rate                0.0832 # miss rate (i.e., misses/ref)
dl1.repl_rate                0.0832 # replacement rate (i.e., repls/ref)
dl1.wb_rate                  0.0282 # writeback rate (i.e., wrbks/ref)
dl1.inv_rate                 0.0000 # invalidation rate (i.e., invs/ref)
dl2.accesses                8704076 # total number of accesses
dl2.hits                    6321352 # total number of hits
dl2.misses                  2382724 # total number of misses
dl2.replacements            2380676 # total number of replacements
dl2.writebacks               668532 # total number of writebacks
dl2.invalidations                 0 # total number of invalidations
dl2.miss_rate                0.2737 # miss rate (i.e., misses/ref)
dl2.repl_rate                0.2735 # replacement rate (i.e., repls/ref)
dl2.wb_rate                  0.0768 # writeback rate (i.e., wrbks/ref)
dl2.inv_rate                 0.0000 # invalidation rate (i.e., invs/ref)
itlb.accesses            2371106846 # total number of accesses
itlb.hits                2371106829 # total number of hits
itlb.misses                      17 # total number of misses
itlb.replacements                 0 # total number of replacements
itlb.writebacks                   0 # total number of writebacks
itlb.invalidations                0 # total number of invalidations
itlb.miss_rate               0.0000 # miss rate (i.e., misses/ref)
itlb.repl_rate               0.0000 # replacement rate (i.e., repls/ref)
itlb.wb_rate                 0.0000 # writeback rate (i.e., wrbks/ref)
itlb.inv_rate                0.0000 # invalidation rate (i.e., invs/ref)
dtlb.accesses              32660801 # total number of accesses
dtlb.hits                  32186577 # total number of hits
dtlb.misses                  474224 # total number of misses
dtlb.replacements            474096 # total number of replacements
dtlb.writebacks                   0 # total number of writebacks
dtlb.invalidations                0 # total number of invalidations
dtlb.miss_rate               0.0145 # miss rate (i.e., misses/ref)
dtlb.repl_rate               0.0145 # replacement rate (i.e., repls/ref)
dtlb.wb_rate                 0.0000 # writeback rate (i.e., wrbks/ref)
dtlb.inv_rate                0.0000 # invalidation rate (i.e., invs/ref)
rename_power           229367265766.3510 # total power usage of rename unit
bpred_power            332962176.7069 # total power usage of bpred unit
window_power           23414223950785.9414 # total power usage of instruction window
lsq_power              17365691584.1367 # total power usage of load/store queue
regfile_power          1431872805529.0842 # total power usage of arch. regfile
icache_power           324041642.1049 # total power usage of icache
dcache_power           2751997554.4423 # total power usage of dcache
dcache2_power          331554576.4808 # total power usage of dcache2
alu_power              4047747603.4206 # total power usage of alu
falu_power             3051873188.8533 # total power usage of falu
resultbus_power        20476912106373.4453 # total power usage of resultbus
clock_power            171486972543.4877 # total power usage of clock
avg_rename_power          2146.6188 # avg power usage of rename unit
avg_bpred_power              3.1162 # avg power usage of bpred unit
avg_window_power        219130.7202 # avg power usage of instruction window
avg_lsq_power              162.5233 # avg power usage of lsq
avg_regfile_power        13400.7140 # avg power usage of arch. regfile
avg_icache_power             3.0327 # avg power usage of icache
avg_dcache_power            25.7556 # avg power usage of dcache
avg_dcache2_power            3.1030 # avg power usage of dcache2
avg_alu_power               37.8824 # avg power usage of alu
avg_falu_power              28.5621 # avg power usage of falu
avg_resultbus_power     191640.7952 # avg power usage of resultbus
avg_clock_power           1604.9246 # avg power usage of clock
fetch_stage_power      657003818.8118 # total power usage of fetch stage
dispatch_stage_power   229367265766.3510 # total power usage of dispatch stage
issue_stage_power      43915633048477.8672 # total power usage of issue stage
avg_fetch_power              6.1488 # average power of fetch unit per cycle
avg_dispatch_power        2146.6188 # average power of dispatch unit per cycle
avg_issue_power         411000.7796 # average power of issue unit per cycle
total_power            45749017096135.6016 # total power per cycle
avg_total_power_cycle   428159.1859 # average total power per cycle
avg_total_power_cycle_nofp_nod2  428127.5208 # average total power per cycle
avg_total_power_insn    457490.1710 # average total power per insn
avg_total_power_insn_nofp_nod2  457456.3367 # average total power per insn
rename_power_cc1       21467804723.2331 # total power usage of rename unit_cc1
bpred_power_cc1              0.0000 # total power usage of bpred unit_cc1
window_power_cc1       6338815520666.9473 # total power usage of instruction window_cc1
lsq_power_cc1          1348268403.7232 # total power usage of lsq_cc1
regfile_power_cc1      183099549570.7430 # total power usage of arch. regfile_cc1
icache_power_cc1       32740172.5429 # total power usage of icache_cc1
dcache_power_cc1       285597674.2308 # total power usage of dcache_cc1
dcache2_power_cc1      22989523.5945 # total power usage of dcache2_cc1
alu_power_cc1          325024271.0822 # total power usage of alu_cc1
resultbus_power_cc1    5366563598557.9971 # total power usage of resultbus_cc1
clock_power_cc1        44708139614.1718 # total power usage of clock_cc1
avg_rename_power_cc1       200.9144 # avg power usage of rename unit_cc1
avg_bpred_power_cc1          0.0000 # avg power usage of bpred unit_cc1
avg_window_power_cc1     59324.1618 # avg power usage of instruction window_cc1
avg_lsq_power_cc1           12.6183 # avg power usage of lsq_cc1
avg_regfile_power_cc1     1713.6052 # avg power usage of arch. regfile_cc1
avg_icache_power_cc1         0.3064 # avg power usage of icache_cc1
avg_dcache_power_cc1         2.6729 # avg power usage of dcache_cc1
avg_dcache2_power_cc1        0.2152 # avg power usage of dcache2_cc1
avg_alu_power_cc1            3.0419 # avg power usage of alu_cc1
avg_resultbus_power_cc1   50224.9807 # avg power usage of resultbus_cc1
avg_clock_power_cc1        418.4177 # avg power usage of clock_cc1
fetch_stage_power_cc1  32740172.5429 # total power usage of fetch stage_cc1
dispatch_stage_power_cc1 21467804723.2331 # total power usage of dispatch stage_cc1
issue_stage_power_cc1  11707360999097.5742 # total power usage of issue stage_cc1
avg_fetch_power_cc1          0.3064 # average power of fetch unit per cycle_cc1
avg_dispatch_power_cc1     200.9144 # average power of dispatch unit per cycle_cc1
avg_issue_power_cc1     109567.6907 # average power of issue unit per cycle_cc1
total_power_cycle_cc1  11956669233178.2637 # total power per cycle_cc1
avg_total_power_cycle_cc1  111900.9345 # average total power per cycle_cc1
avg_total_power_insn_cc1  119566.6923 # average total power per insn_cc1
rename_power_cc2       419261490.6734 # total power usage of rename unit_cc2
bpred_power_cc2              0.0000 # total power usage of bpred unit_cc2
window_power_cc2       58981588772.3859 # total power usage of instruction window_cc2
lsq_power_cc2          414612292.7470 # total power usage of lsq_cc2
regfile_power_cc2      895225204.4772 # total power usage of arch. regfile_cc2
icache_power_cc2       32740172.5429 # total power usage of icache_cc2
dcache_power_cc2       97376920.1631 # total power usage of dcache_cc2
dcache2_power_cc2      3376068.2068 # total power usage of dcache2_cc2
alu_power_cc2          128363101.8619 # total power usage of alu_cc2
resultbus_power_cc2    39901309814.3269 # total power usage of resultbus_cc2
clock_power_cc2        378285586.0000 # total power usage of clock_cc2
avg_rename_power_cc2         3.9238 # avg power usage of rename unit_cc2
avg_bpred_power_cc2          0.0000 # avg power usage of bpred unit_cc2
avg_window_power_cc2       552.0011 # avg power usage of instruction window_cc2
avg_lsq_power_cc2            3.8803 # avg power usage of instruction lsq_cc2
avg_regfile_power_cc2        8.3783 # avg power usage of arch. regfile_cc2
avg_icache_power_cc2         0.3064 # avg power usage of icache_cc2
avg_dcache_power_cc2         0.9113 # avg power usage of dcache_cc2
avg_dcache2_power_cc2        0.0316 # avg power usage of dcache2_cc2
avg_alu_power_cc2            1.2013 # avg power usage of alu_cc2
avg_resultbus_power_cc2     373.4312 # avg power usage of resultbus_cc2
avg_clock_power_cc2          3.5403 # avg power usage of clock_cc2
fetch_stage_power_cc2  32740172.5429 # total power usage of fetch stage_cc2
dispatch_stage_power_cc2 419261490.6734 # total power usage of dispatch stage_cc2
issue_stage_power_cc2  99526626969.6917 # total power usage of issue stage_cc2
avg_fetch_power_cc2          0.3064 # average power of fetch unit per cycle_cc2
avg_dispatch_power_cc2       3.9238 # average power of dispatch unit per cycle_cc2
avg_issue_power_cc2        931.4569 # average power of issue unit per cycle_cc2
total_power_cycle_cc2  101252139423.3852 # total power per cycle_cc2
avg_total_power_cycle_cc2     947.6058 # average total power per cycle_cc2
avg_total_power_insn_cc2    1012.5214 # average total power per insn_cc2
rename_power_cc3       21209207557.2226 # total power usage of rename unit_cc3
bpred_power_cc3        33296217.8289 # total power usage of bpred unit_cc3
window_power_cc3       1700744679996.4697 # total power usage of instruction window_cc3
lsq_power_cc3          2012815819.4258 # total power usage of lsq_cc3
regfile_power_cc3      124147227914.3475 # total power usage of arch. regfile_cc3
icache_power_cc3       61870319.7054 # total power usage of icache_cc3
dcache_power_cc3       344042713.4233 # total power usage of dcache_cc3
dcache2_power_cc3      34232573.3734 # total power usage of dcache2_cc3
alu_power_cc3          500635433.3697 # total power usage of alu_cc3
resultbus_power_cc3    1515159069807.9204 # total power usage of resultbus_cc3
clock_power_cc3        12668527006.4120 # total power usage of clock_cc3
avg_rename_power_cc3       198.4943 # avg power usage of rename unit_cc3
avg_bpred_power_cc3          0.3116 # avg power usage of bpred unit_cc3
avg_window_power_cc3     15917.0514 # avg power usage of instruction window_cc3
avg_lsq_power_cc3           18.8377 # avg power usage of instruction lsq_cc3
avg_regfile_power_cc3     1161.8780 # avg power usage of arch. regfile_cc3
avg_icache_power_cc3         0.5790 # avg power usage of icache_cc3
avg_dcache_power_cc3         3.2199 # avg power usage of dcache_cc3
avg_dcache2_power_cc3        0.3204 # avg power usage of dcache2_cc3
avg_alu_power_cc3            4.6854 # avg power usage of alu_cc3
avg_resultbus_power_cc3   14180.1795 # avg power usage of resultbus_cc3
avg_clock_power_cc3        118.5631 # avg power usage of clock_cc3
fetch_stage_power_cc3  95166537.5343 # total power usage of fetch stage_cc3
dispatch_stage_power_cc3 21209207557.2226 # total power usage of dispatch stage_cc3
issue_stage_power_cc3  3218795476343.9824 # total power usage of issue stage_cc3
avg_fetch_power_cc3          0.8907 # average power of fetch unit per cycle_cc3
avg_dispatch_power_cc3     198.4943 # average power of dispatch unit per cycle_cc3
avg_issue_power_cc3      30124.2942 # average power of issue unit per cycle_cc3
total_power_cycle_cc3  3376915605359.4990 # total power per cycle_cc3
avg_total_power_cycle_cc3   31604.1202 # average total power per cycle_cc3
avg_total_power_insn_cc3   33769.1561 # average total power per insn_cc3
total_rename_access       100000000 # total number accesses of rename unit
total_bpred_access                0 # total number accesses of bpred unit
total_window_access       342690912 # total number accesses of instruction window
total_lsq_access           35075149 # total number accesses of load/store queue
total_regfile_access      110840526 # total number accesses of arch. regfile
total_icache_access      2371106846 # total number accesses of icache
total_dcache_access        30246455 # total number accesses of dcache
total_dcache2_access        8704076 # total number accesses of dcache2
total_alu_access           99999624 # total number accesses of alu
total_resultbus_access    113709794 # total number accesses of resultbus
avg_rename_access            0.9359 # avg number accesses of rename unit
avg_bpred_access             0.0000 # avg number accesses of bpred unit
avg_window_access            3.2072 # avg number accesses of instruction window
avg_lsq_access               0.3283 # avg number accesses of lsq
avg_regfile_access           1.0373 # avg number accesses of arch. regfile
avg_icache_access           22.1909 # avg number accesses of icache
avg_dcache_access            0.2831 # avg number accesses of dcache
avg_dcache2_access           0.0815 # avg number accesses of dcache2
avg_alu_access               0.9359 # avg number accesses of alu
avg_resultbus_access         1.0642 # avg number accesses of resultbus
max_rename_access               163 # max number accesses of rename unit
max_bpred_access                  0 # max number accesses of bpred unit
max_window_access               178 # max number accesses of instruction window
max_lsq_access                   60 # max number accesses of load/store queue
max_regfile_access              349 # max number accesses of arch. regfile
max_icache_access               512 # max number accesses of icache
max_dcache_access                16 # max number accesses of dcache
max_dcache2_access                8 # max number accesses of dcache2
max_alu_access                   17 # max number accesses of alu
max_resultbus_access             54 # max number accesses of resultbus
max_cycle_power_cc1     413041.4062 # maximum cycle power usage of cc1
max_cycle_power_cc2      29788.7201 # maximum cycle power usage of cc2
max_cycle_power_cc3      43988.3848 # maximum cycle power usage of cc3
sim_invalid_addrs                 0 # total non-speculative bogus addresses seen (debug var)
ld_text_base           0x0120000000 # program text (code) segment base
ld_text_size                 450560 # program text (code) size in bytes
ld_data_base           0x0140000000 # program initialized data segment base
ld_data_size                  98512 # program init'ed `.data' and uninit'ed `.bss' size in bytes
ld_stack_base          0x011ff9b000 # program stack segment base (highest address in stack)
ld_stack_size                 16384 # program initial stack size
ld_prog_entry          0x012001c22c # program entry point (initial PC)
ld_environ_base        0x011ff96d50 # program environment base address address
ld_target_big_endian              0 # target executable endian-ness, non-zero if big endian
mem.page_count                  287 # total number of pages allocated
mem.page_mem                  2296k # total size of memory pages allocated
mem.ptab_misses              408448 # total first level page table misses
mem.ptab_accesses        5055943802 # total page table accesses
mem.ptab_miss_rate           0.0001 # first level page table miss rate

