sim-outorder: SimpleScalar/Alpha Tool Set version 3.0 of August, 2003.
Copyright (c) 1994-2003 by Todd M. Austin, Ph.D. and SimpleScalar, LLC.
All Rights Reserved. This version of SimpleScalar is licensed for academic
non-commercial use.  No portion of this work may be used by any commercial
entity, or for any commercial purpose, without the prior written permission
of SimpleScalar, LLC (info@simplescalar.com).


Processor Parameters:
Issue Width: 16
Window Size: 64
Number of Virtual Registers: 32
Number of Physical Registers: 64
Datapath Width: 64
Total Power Consumption: 225.197
Branch Predictor Power Consumption: 2.84842  (1.28%)
 branch target buffer power (W): 2.49493
 local predict power (W): 0.0867068
 global predict power (W): 0.0996078
 chooser power (W): 0.0702439
 RAS power (W): 0.0969383
Rename Logic Power Consumption: 3.27072  (1.47%)
 Instruction Decode Power (W): 0.0639661
 RAT decode_power (W): 0.454058
 RAT wordline_power (W): 0.227603
 RAT bitline_power (W): 2.30694
 DCL Comparators (W): 0.218151
Instruction Window Power Consumption: 43.216  (19.4%)
 tagdrive (W): 2.9395
 tagmatch (W): 0.989695
 Selection Logic (W): 0.225484
 decode_power (W): 0.976583
 wordline_power (W): 1.0557
 bitline_power (W): 37.0291
Load/Store Queue Power Consumption: 3.89593  (1.75%)
 tagdrive (W): 0.980932
 tagmatch (W): 0.214942
 decode_power (W): 0.0159915
 wordline_power (W): 0.0433172
 bitline_power (W): 2.64075
Arch. Register File Power Consumption: 25.1387  (11.3%)
 decode_power (W): 0.454058
 wordline_power (W): 1.0557
 bitline_power (W): 23.629
Result Bus Power Consumption: 31.3281  (14%)
Total Clock Power: 61.2631  (27.4%)
Int ALU Power: 4.66013  (2.09%)
FP ALU Power: 28.5621  (12.8%)
Instruction Cache Power Consumption: 2.76773  (1.24%)
 decode_power (W): 0.151353
 wordline_power (W): 0.180479
 bitline_power (W): 1.42251
 senseamp_power (W): 0.768
 tagarray_power (W): 0.245382
Itlb_power (W): 0.264936 (0.119%)
Data Cache Power Consumption: 11.0709  (4.96%)
 decode_power (W): 0.60541
 wordline_power (W): 0.721917
 bitline_power (W): 5.69006
 senseamp_power (W): 3.072
 tagarray_power (W): 0.981529
Dtlb_power (W): 1.80688 (0.81%)
Level 2 Cache Power Consumption: 3.10298 (1.39%)
 decode_power (W): 0.19487
 wordline_power (W): 0.0430878
 bitline_power (W): 1.77274
 senseamp_power (W): 0.192
 tagarray_power (W): 0.900275
sim: loading EIO file: ../benchmarks/173.applu.spec_ref.eio.gz
sim: command line: ./sim-outorder -config ../configs/current.config ../benchmarks/173.applu.spec_ref.eio.gz 

sim: simulation started @ Tue Nov 24 11:32:15 2015, options follow:

sim-outorder: This simulator implements a very detailed out-of-order issue
superscalar processor with a two-level memory system and speculative
execution support.  This simulator is a performance simulator, tracking the
latency of all pipeline operations.

# -config                     # load configuration from a file
# -dumpconfig                 # dump configuration to a file
# -h                    false # print help message    
# -v                    false # verbose operation     
# -d                    false # enable debug message  
# -i                    false # start in Dlite debugger
-seed                       1 # random number generator seed (0 for timer seed)
# -q                    false # initialize and terminate immediately
# -chkpt               <null> # restore EIO trace execution from <fname>
# -redir:sim     ../results/21_20_matt/173.applu.spec_ref.eio.gz.out # redirect simulator output to file (non-interactive only)
# -redir:prog       /dev/null # redirect simulated program output to file
-nice                       0 # simulator scheduling priority
-freq            600000000.0000 # frequency             
-max:inst           100000000 # maximum number of inst's to execute
-fastfwd                    0 # number of insts skipped before timing starts
# -ptrace              <null> # generate pipetrace, i.e., <fname|stdout|stderr> <range>
-fetch:ifqsize             16 # instruction fetch queue size (in insts)
-fetch:mplat               15 # extra branch mis-prediction latency
-fetch:speed                1 # speed of front-end of machine relative to execution core
-bpred                   2lev # branch predictor type {nottaken|taken|perfect|bimod|2lev|comb}
-bpred:bimod     2048 # bimodal predictor config (<table size>)
-bpred:2lev      1 1024 4 0 # 2-level predictor config (<l1size> <l2size> <hist_size> <xor>)
-bpred:comb      1024 # combining predictor config (<meta_table_size>)
-bpred:ras                  8 # return address stack size (0 for no return stack)
-bpred:btb       512 4 # BTB config (<num_sets> <associativity>)
# -bpred:spec_update       <null> # speculative predictors update in {ID|WB} (default non-spec)
-decode:width              16 # instruction decode B/W (insts/cycle)
-issue:width               16 # instruction issue B/W (insts/cycle)
-issue:inorder          false # run pipeline with in-order issue
-issue:wrongpath         true # issue instructions down wrong execution paths
-commit:width              16 # instruction commit B/W (insts/cycle)
-ruu:size                  64 # register update unit (RUU) size
-lsq:size                   8 # load/store queue (LSQ) size
-cache:dl1       dl1:32:64:8:f # l1 data cache config, i.e., {<config>|none}
-cache:dl1lat               1 # l1 data cache hit latency (in cycles)
-cache:dl2       dl2:256:64:8:f # l2 data cache config, i.e., {<config>|none}
-cache:dl2lat               2 # l2 data cache hit latency (in cycles)
-cache:il1       il1:32:64:8:f # l1 inst cache config, i.e., {<config>|dl1|dl2|none}
-cache:il1lat               1 # l1 instruction cache hit latency (in cycles)
-cache:il2                dl2 # l2 instruction cache config, i.e., {<config>|dl2|none}
-cache:il2lat               2 # l2 instruction cache hit latency (in cycles)
-cache:flush            false # flush caches on system calls
-cache:icompress        false # convert 64-bit inst addresses to 32-bit inst equivalents
-mem:lat         103 1 # memory access latency (<first_chunk> <inter_chunk>)
-mem:width                  8 # memory access bus width (in bytes)
-tlb:itlb        itlb:16:4096:4:l # instruction TLB config, i.e., {<config>|none}
-tlb:dtlb        dtlb:32:4096:4:l # data TLB config, i.e., {<config>|none}
-tlb:lat                   30 # inst/data TLB miss latency (in cycles)
-res:ialu                   4 # total number of integer ALU's available
-res:imult                  2 # total number of integer multiplier/dividers available
-res:memport                4 # total number of memory system ports available (to CPU)
-res:fpalu                  8 # total number of floating point ALU's available
-res:fpmult                 2 # total number of floating point multiplier/dividers available
# -pcstat              <null> # profile stat(s) against text addr's (mult uses ok)
-bugcompat              false # operate in backward-compatible bugs mode (for testing only)

  Pipetrace range arguments are formatted as follows:

    {{@|#}<start>}:{{@|#|+}<end>}

  Both ends of the range are optional, if neither are specified, the entire
  execution is traced.  Ranges that start with a `@' designate an address
  range to be traced, those that start with an `#' designate a cycle count
  range.  All other range values represent an instruction count range.  The
  second argument, if specified with a `+', indicates a value relative
  to the first argument, e.g., 1000:+100 == 1000:1100.  Program symbols may
  be used in all contexts.

    Examples:   -ptrace FOO.trc #0:#1000
                -ptrace BAR.trc @2000:
                -ptrace BLAH.trc :1500
                -ptrace UXXE.trc :
                -ptrace FOOBAR.trc @main:+278

  Branch predictor configuration examples for 2-level predictor:
    Configurations:   N, M, W, X
      N   # entries in first level (# of shift register(s))
      W   width of shift register(s)
      M   # entries in 2nd level (# of counters, or other FSM)
      X   (yes-1/no-0) xor history and address for 2nd level index
    Sample predictors:
      GAg     : 1, W, 2^W, 0
      GAp     : 1, W, M (M > 2^W), 0
      PAg     : N, W, 2^W, 0
      PAp     : N, W, M (M == 2^(N+W)), 0
      gshare  : 1, W, 2^W, 1
  Predictor `comb' combines a bimodal and a 2-level predictor.

  The cache config parameter <config> has the following format:

    <name>:<nsets>:<bsize>:<assoc>:<repl>

    <name>   - name of the cache being defined
    <nsets>  - number of sets in the cache
    <bsize>  - block size of the cache
    <assoc>  - associativity of the cache
    <repl>   - block replacement strategy, 'l'-LRU, 'f'-FIFO, 'r'-random

    Examples:   -cache:dl1 dl1:4096:32:1:l
                -dtlb dtlb:128:4096:32:r

  Cache levels can be unified by pointing a level of the instruction cache
  hierarchy at the data cache hiearchy using the "dl1" and "dl2" cache
  configuration arguments.  Most sensible combinations are supported, e.g.,

    A unified l2 cache (il2 is pointed at dl2):
      -cache:il1 il1:128:64:1:l -cache:il2 dl2
      -cache:dl1 dl1:256:32:1:l -cache:dl2 ul2:1024:64:2:l

    Or, a fully unified cache hierarchy (il1 pointed at dl1):
      -cache:il1 dl1
      -cache:dl1 ul1:256:32:1:l -cache:dl2 ul2:1024:64:2:l



sim: ** starting performance simulation **

sim: ** simulation statistics **
sim_num_insn              100000001 # total number of instructions committed
sim_num_refs               40558483 # total number of loads and stores committed
sim_num_loads              30197384 # total number of loads committed
sim_num_stores         10361099.0000 # total number of stores committed
sim_num_branches             565233 # total number of branches committed
sim_elapsed_time                150 # total simulation time in seconds
sim_inst_rate           666666.6733 # simulation speed (in insts/sec)
sim_total_insn            100136220 # total number of instructions executed
sim_total_refs             40591018 # total number of loads and stores executed
sim_total_loads            30226113 # total number of loads executed
sim_total_stores       10364905.0000 # total number of stores executed
sim_total_branches           580719 # total number of branches executed
sim_cycle                 158127693 # total simulation time in cycles
sim_IPC                      0.6324 # instructions per cycle
sim_CPI                      1.5813 # cycles per instruction
sim_exec_BW                  0.6333 # total instructions (mis-spec + committed) per cycle
sim_IPB                    176.9182 # instruction per branch
IFQ_count                2427910114 # cumulative IFQ occupancy
IFQ_fcount                150144093 # cumulative IFQ full count
ifq_occupancy               15.3541 # avg IFQ occupancy (insn's)
ifq_rate                     0.6333 # avg IFQ dispatch rate (insn/cycle)
ifq_latency                 24.2461 # avg IFQ occupant latency (cycle's)
ifq_full                     0.9495 # fraction of time (cycle's) IFQ was full
RUU_count                2672136101 # cumulative RUU occupancy
RUU_fcount                     1322 # cumulative RUU full count
ruu_occupancy               16.8986 # avg RUU occupancy (insn's)
ruu_rate                     0.6333 # avg RUU dispatch rate (insn/cycle)
ruu_latency                 26.6850 # avg RUU occupant latency (cycle's)
ruu_full                     0.0000 # fraction of time (cycle's) RUU was full
LSQ_count                1227379335 # cumulative LSQ occupancy
LSQ_fcount                151528553 # cumulative LSQ full count
lsq_occupancy                7.7620 # avg LSQ occupancy (insn's)
lsq_rate                     0.6333 # avg LSQ dispatch rate (insn/cycle)
lsq_latency                 12.2571 # avg LSQ occupant latency (cycle's)
lsq_full                     0.9583 # fraction of time (cycle's) LSQ was full
sim_slip                 4039613596 # total number of slip cycles
avg_sim_slip                40.3961 # the average slip between issue and retirement
bpred_2lev.lookups           603063 # total number of bpred lookups
bpred_2lev.updates           565233 # total number of updates
bpred_2lev.addr_hits         552553 # total number of address-predicted hits
bpred_2lev.dir_hits          552793 # total number of direction-predicted hits (includes addr-hits)
bpred_2lev.misses             12440 # total number of misses
bpred_2lev.jr_hits              166 # total number of address-predicted hits for JR's
bpred_2lev.jr_seen              251 # total number of JR's seen
bpred_2lev.jr_non_ras_hits.PP           38 # total number of address-predicted hits for non-RAS JR's
bpred_2lev.jr_non_ras_seen.PP          120 # total number of non-RAS JR's seen
bpred_2lev.bpred_addr_rate    0.9776 # branch address-prediction rate (i.e., addr-hits/updates)
bpred_2lev.bpred_dir_rate    0.9780 # branch direction-prediction rate (i.e., all-hits/updates)
bpred_2lev.bpred_jr_rate    0.6614 # JR address-prediction rate (i.e., JR addr-hits/JRs seen)
bpred_2lev.bpred_jr_non_ras_rate.PP    0.3167 # non-RAS JR addr-pred rate (ie, non-RAS JR hits/JRs seen)
bpred_2lev.retstack_pushes          188 # total number of address pushed onto ret-addr stack
bpred_2lev.retstack_pops          161 # total number of address popped off of ret-addr stack
bpred_2lev.used_ras.PP          131 # total number of RAS predictions used
bpred_2lev.ras_hits.PP          128 # total number of RAS hits
bpred_2lev.ras_rate.PP    0.9771 # RAS prediction rate (i.e., RAS hits/used RAS)
il1.accesses              101466155 # total number of accesses
il1.hits                  100289013 # total number of hits
il1.misses                  1177142 # total number of misses
il1.replacements            1176886 # total number of replacements
il1.writebacks                    0 # total number of writebacks
il1.invalidations                 0 # total number of invalidations
il1.miss_rate                0.0116 # miss rate (i.e., misses/ref)
il1.repl_rate                0.0116 # replacement rate (i.e., repls/ref)
il1.wb_rate                  0.0000 # writeback rate (i.e., wrbks/ref)
il1.inv_rate                 0.0000 # invalidation rate (i.e., invs/ref)
dl1.accesses               40558651 # total number of accesses
dl1.hits                   37705467 # total number of hits
dl1.misses                  2853184 # total number of misses
dl1.replacements            2852928 # total number of replacements
dl1.writebacks              1412384 # total number of writebacks
dl1.invalidations                 0 # total number of invalidations
dl1.miss_rate                0.0703 # miss rate (i.e., misses/ref)
dl1.repl_rate                0.0703 # replacement rate (i.e., repls/ref)
dl1.wb_rate                  0.0348 # writeback rate (i.e., wrbks/ref)
dl1.inv_rate                 0.0000 # invalidation rate (i.e., invs/ref)
dl2.accesses                5442710 # total number of accesses
dl2.hits                    3521140 # total number of hits
dl2.misses                  1921570 # total number of misses
dl2.replacements            1919522 # total number of replacements
dl2.writebacks              1009835 # total number of writebacks
dl2.invalidations                 0 # total number of invalidations
dl2.miss_rate                0.3531 # miss rate (i.e., misses/ref)
dl2.repl_rate                0.3527 # replacement rate (i.e., repls/ref)
dl2.wb_rate                  0.1855 # writeback rate (i.e., wrbks/ref)
dl2.inv_rate                 0.0000 # invalidation rate (i.e., invs/ref)
itlb.accesses             101466155 # total number of accesses
itlb.hits                 101466105 # total number of hits
itlb.misses                      50 # total number of misses
itlb.replacements                 1 # total number of replacements
itlb.writebacks                   0 # total number of writebacks
itlb.invalidations                0 # total number of invalidations
itlb.miss_rate               0.0000 # miss rate (i.e., misses/ref)
itlb.repl_rate               0.0000 # replacement rate (i.e., repls/ref)
itlb.wb_rate                 0.0000 # writeback rate (i.e., wrbks/ref)
itlb.inv_rate                0.0000 # invalidation rate (i.e., invs/ref)
dtlb.accesses              40558929 # total number of accesses
dtlb.hits                  40227206 # total number of hits
dtlb.misses                  331723 # total number of misses
dtlb.replacements            331595 # total number of replacements
dtlb.writebacks                   0 # total number of writebacks
dtlb.invalidations                0 # total number of invalidations
dtlb.miss_rate               0.0082 # miss rate (i.e., misses/ref)
dtlb.repl_rate               0.0082 # replacement rate (i.e., repls/ref)
dtlb.wb_rate                 0.0000 # writeback rate (i.e., wrbks/ref)
dtlb.inv_rate                0.0000 # invalidation rate (i.e., invs/ref)
rename_power           517191173.3605 # total power usage of rename unit
bpred_power            450414822.1972 # total power usage of bpred unit
window_power           6833651039.6230 # total power usage of instruction window
lsq_power              616054173.4678 # total power usage of load/store queue
regfile_power          3975131368.4114 # total power usage of arch. regfile
icache_power           479548191.0141 # total power usage of icache
dcache_power           2036336197.2928 # total power usage of dcache
dcache2_power          490666560.1199 # total power usage of dcache2
alu_power              5253353068.5354 # total power usage of alu
falu_power             4516457386.0360 # total power usage of falu
resultbus_power        4953842725.0090 # total power usage of resultbus
clock_power            9687390679.9325 # total power usage of clock
avg_rename_power             3.2707 # avg power usage of rename unit
avg_bpred_power              2.8484 # avg power usage of bpred unit
avg_window_power            43.2160 # avg power usage of instruction window
avg_lsq_power                3.8959 # avg power usage of lsq
avg_regfile_power           25.1387 # avg power usage of arch. regfile
avg_icache_power             3.0327 # avg power usage of icache
avg_dcache_power            12.8778 # avg power usage of dcache
avg_dcache2_power            3.1030 # avg power usage of dcache2
avg_alu_power               33.2222 # avg power usage of alu
avg_falu_power              28.5621 # avg power usage of falu
avg_resultbus_power         31.3281 # avg power usage of resultbus
avg_clock_power             61.2631 # avg power usage of clock
fetch_stage_power      929963013.2113 # total power usage of fetch stage
dispatch_stage_power   517191173.3605 # total power usage of dispatch stage
issue_stage_power      20183903764.0480 # total power usage of issue stage
avg_fetch_power              5.8811 # average power of fetch unit per cycle
avg_dispatch_power           3.2707 # average power of dispatch unit per cycle
avg_issue_power            127.6431 # average power of issue unit per cycle
total_power            35293579998.9637 # total power per cycle
avg_total_power_cycle      223.1967 # average total power per cycle
avg_total_power_cycle_nofp_nod2     191.5316 # average total power per cycle
avg_total_power_insn       352.4557 # average total power per insn
avg_total_power_insn_nofp_nod2     302.4526 # average total power per insn
rename_power_cc1       51826618.4257 # total power usage of rename unit_cc1
bpred_power_cc1        1368556.9654 # total power usage of bpred unit_cc1
window_power_cc1       1582577624.5359 # total power usage of instruction window_cc1
lsq_power_cc1          34067137.8483 # total power usage of lsq_cc1
regfile_power_cc1      438243404.7878 # total power usage of arch. regfile_cc1
icache_power_cc1       49323808.4317 # total power usage of icache_cc1
dcache_power_cc1       241622312.0667 # total power usage of dcache_cc1
dcache2_power_cc1      11244011.0188 # total power usage of dcache2_cc1
alu_power_cc1          729485350.3099 # total power usage of alu_cc1
resultbus_power_cc1    1065166941.8367 # total power usage of resultbus_cc1
clock_power_cc1        1570129651.8397 # total power usage of clock_cc1
avg_rename_power_cc1         0.3278 # avg power usage of rename unit_cc1
avg_bpred_power_cc1          0.0087 # avg power usage of bpred unit_cc1
avg_window_power_cc1        10.0082 # avg power usage of instruction window_cc1
avg_lsq_power_cc1            0.2154 # avg power usage of lsq_cc1
avg_regfile_power_cc1        2.7715 # avg power usage of arch. regfile_cc1
avg_icache_power_cc1         0.3119 # avg power usage of icache_cc1
avg_dcache_power_cc1         1.5280 # avg power usage of dcache_cc1
avg_dcache2_power_cc1        0.0711 # avg power usage of dcache2_cc1
avg_alu_power_cc1            4.6133 # avg power usage of alu_cc1
avg_resultbus_power_cc1       6.7361 # avg power usage of resultbus_cc1
avg_clock_power_cc1          9.9295 # avg power usage of clock_cc1
fetch_stage_power_cc1  50692365.3971 # total power usage of fetch stage_cc1
dispatch_stage_power_cc1 51826618.4257 # total power usage of dispatch stage_cc1
issue_stage_power_cc1  3664163377.6162 # total power usage of issue stage_cc1
avg_fetch_power_cc1          0.3206 # average power of fetch unit per cycle_cc1
avg_dispatch_power_cc1       0.3278 # average power of dispatch unit per cycle_cc1
avg_issue_power_cc1         23.1722 # average power of issue unit per cycle_cc1
total_power_cycle_cc1  5775055418.0665 # total power per cycle_cc1
avg_total_power_cycle_cc1      36.5215 # average total power per cycle_cc1
avg_total_power_insn_cc1      57.6720 # average total power per insn_cc1
rename_power_cc2       20469836.8352 # total power usage of rename unit_cc2
bpred_power_cc2         805011.8108 # total power usage of bpred unit_cc2
window_power_cc2       438506956.6235 # total power usage of instruction window_cc2
lsq_power_cc2          15264293.5605 # total power usage of lsq_cc2
regfile_power_cc2      103693612.2545 # total power usage of arch. regfile_cc2
icache_power_cc2       49323808.4317 # total power usage of icache_cc2
dcache_power_cc2       130576509.5553 # total power usage of dcache_cc2
dcache2_power_cc2      4222150.6770 # total power usage of dcache2_cc2
alu_power_cc2          240525403.0241 # total power usage of alu_cc2
resultbus_power_cc2    237995179.4994 # total power usage of resultbus_cc2
clock_power_cc2        460616793.1998 # total power usage of clock_cc2
avg_rename_power_cc2         0.1295 # avg power usage of rename unit_cc2
avg_bpred_power_cc2          0.0051 # avg power usage of bpred unit_cc2
avg_window_power_cc2         2.7731 # avg power usage of instruction window_cc2
avg_lsq_power_cc2            0.0965 # avg power usage of instruction lsq_cc2
avg_regfile_power_cc2        0.6558 # avg power usage of arch. regfile_cc2
avg_icache_power_cc2         0.3119 # avg power usage of icache_cc2
avg_dcache_power_cc2         0.8258 # avg power usage of dcache_cc2
avg_dcache2_power_cc2        0.0267 # avg power usage of dcache2_cc2
avg_alu_power_cc2            1.5211 # avg power usage of alu_cc2
avg_resultbus_power_cc2       1.5051 # avg power usage of resultbus_cc2
avg_clock_power_cc2          2.9129 # avg power usage of clock_cc2
fetch_stage_power_cc2  50128820.2425 # total power usage of fetch stage_cc2
dispatch_stage_power_cc2 20469836.8352 # total power usage of dispatch stage_cc2
issue_stage_power_cc2  1067090492.9397 # total power usage of issue stage_cc2
avg_fetch_power_cc2          0.3170 # average power of fetch unit per cycle_cc2
avg_dispatch_power_cc2       0.1295 # average power of dispatch unit per cycle_cc2
avg_issue_power_cc2          6.7483 # average power of issue unit per cycle_cc2
total_power_cycle_cc2  1701999555.4716 # total power per cycle_cc2
avg_total_power_cycle_cc2      10.7635 # average total power per cycle_cc2
avg_total_power_insn_cc2      16.9968 # average total power per insn_cc2
rename_power_cc3       67006292.5236 # total power usage of rename unit_cc3
bpred_power_cc3        45713903.9810 # total power usage of bpred unit_cc3
window_power_cc3       947695285.0762 # total power usage of instruction window_cc3
lsq_power_cc3          73263952.4142 # total power usage of lsq_cc3
regfile_power_cc3      452029853.2146 # total power usage of arch. regfile_cc3
icache_power_cc3       92346247.0374 # total power usage of icache_cc3
dcache_power_cc3       310184418.2065 # total power usage of dcache_cc3
dcache2_power_cc3      52165679.5471 # total power usage of dcache2_cc3
alu_power_cc3          692912174.0575 # total power usage of alu_cc3
resultbus_power_cc3    619761645.4112 # total power usage of resultbus_cc3
clock_power_cc3        1261906281.9893 # total power usage of clock_cc3
avg_rename_power_cc3         0.4237 # avg power usage of rename unit_cc3
avg_bpred_power_cc3          0.2891 # avg power usage of bpred unit_cc3
avg_window_power_cc3         5.9932 # avg power usage of instruction window_cc3
avg_lsq_power_cc3            0.4633 # avg power usage of instruction lsq_cc3
avg_regfile_power_cc3        2.8586 # avg power usage of arch. regfile_cc3
avg_icache_power_cc3         0.5840 # avg power usage of icache_cc3
avg_dcache_power_cc3         1.9616 # avg power usage of dcache_cc3
avg_dcache2_power_cc3        0.3299 # avg power usage of dcache2_cc3
avg_alu_power_cc3            4.3820 # avg power usage of alu_cc3
avg_resultbus_power_cc3       3.9194 # avg power usage of resultbus_cc3
avg_clock_power_cc3          7.9803 # avg power usage of clock_cc3
fetch_stage_power_cc3  138060151.0184 # total power usage of fetch stage_cc3
dispatch_stage_power_cc3 67006292.5236 # total power usage of dispatch stage_cc3
issue_stage_power_cc3  2695983154.7128 # total power usage of issue stage_cc3
avg_fetch_power_cc3          0.8731 # average power of fetch unit per cycle_cc3
avg_dispatch_power_cc3       0.4237 # average power of dispatch unit per cycle_cc3
avg_issue_power_cc3         17.0494 # average power of issue unit per cycle_cc3
total_power_cycle_cc3  4614985733.4587 # total power per cycle_cc3
avg_total_power_cycle_cc3      29.1852 # average total power per cycle_cc3
avg_total_power_insn_cc3      46.0871 # average total power per insn_cc3
total_rename_access       100136220 # total number accesses of rename unit
total_bpred_access           565233 # total number accesses of bpred unit
total_window_access       425759150 # total number accesses of instruction window
total_lsq_access           40559409 # total number accesses of load/store queue
total_regfile_access      223796050 # total number accesses of arch. regfile
total_icache_access       101494237 # total number accesses of icache
total_dcache_access        40558651 # total number accesses of dcache
total_dcache2_access        5442710 # total number accesses of dcache2
total_alu_access           99582762 # total number accesses of alu
total_resultbus_access    129653005 # total number accesses of resultbus
avg_rename_access            0.6333 # avg number accesses of rename unit
avg_bpred_access             0.0036 # avg number accesses of bpred unit
avg_window_access            2.6925 # avg number accesses of instruction window
avg_lsq_access               0.2565 # avg number accesses of lsq
avg_regfile_access           1.4153 # avg number accesses of arch. regfile
avg_icache_access            0.6418 # avg number accesses of icache
avg_dcache_access            0.2565 # avg number accesses of dcache
avg_dcache2_access           0.0344 # avg number accesses of dcache2
avg_alu_access               0.6298 # avg number accesses of alu
avg_resultbus_access         0.8199 # avg number accesses of resultbus
max_rename_access                16 # max number accesses of rename unit
max_bpred_access                  6 # max number accesses of bpred unit
max_window_access                42 # max number accesses of instruction window
max_lsq_access                    7 # max number accesses of load/store queue
max_regfile_access               47 # max number accesses of arch. regfile
max_icache_access                16 # max number accesses of icache
max_dcache_access                 8 # max number accesses of dcache
max_dcache2_access                8 # max number accesses of dcache2
max_alu_access                   13 # max number accesses of alu
max_resultbus_access             16 # max number accesses of resultbus
max_cycle_power_cc1        171.2739 # maximum cycle power usage of cc1
max_cycle_power_cc2         98.1910 # maximum cycle power usage of cc2
max_cycle_power_cc3        107.4412 # maximum cycle power usage of cc3
sim_invalid_addrs                 0 # total non-speculative bogus addresses seen (debug var)
ld_text_base           0x0120000000 # program text (code) segment base
ld_text_size                1056768 # program text (code) size in bytes
ld_data_base           0x0140000000 # program initialized data segment base
ld_data_size              198995952 # program init'ed `.data' and uninit'ed `.bss' size in bytes
ld_stack_base          0x011ff9b000 # program stack segment base (highest address in stack)
ld_stack_size                 16384 # program initial stack size
ld_prog_entry          0x0120047548 # program entry point (initial PC)
ld_environ_base        0x011ff96cb0 # program environment base address address
ld_target_big_endian              0 # target executable endian-ness, non-zero if big endian
mem.page_count                23259 # total number of pages allocated
mem.page_mem                186072k # total size of memory pages allocated
mem.ptab_misses               35489 # total first level page table misses
mem.ptab_accesses        1210868624 # total page table accesses
mem.ptab_miss_rate           0.0000 # first level page table miss rate

