sim-outorder: SimpleScalar/Alpha Tool Set version 3.0 of August, 2003.
Copyright (c) 1994-2003 by Todd M. Austin, Ph.D. and SimpleScalar, LLC.
All Rights Reserved. This version of SimpleScalar is licensed for academic
non-commercial use.  No portion of this work may be used by any commercial
entity, or for any commercial purpose, without the prior written permission
of SimpleScalar, LLC (info@simplescalar.com).


Processor Parameters:
Issue Width: 16
Window Size: 64
Number of Virtual Registers: 32
Number of Physical Registers: 64
Datapath Width: 64
Total Power Consumption: 225.197
Branch Predictor Power Consumption: 2.84842  (1.28%)
 branch target buffer power (W): 2.49493
 local predict power (W): 0.0867068
 global predict power (W): 0.0996078
 chooser power (W): 0.0702439
 RAS power (W): 0.0969383
Rename Logic Power Consumption: 3.27072  (1.47%)
 Instruction Decode Power (W): 0.0639661
 RAT decode_power (W): 0.454058
 RAT wordline_power (W): 0.227603
 RAT bitline_power (W): 2.30694
 DCL Comparators (W): 0.218151
Instruction Window Power Consumption: 43.216  (19.4%)
 tagdrive (W): 2.9395
 tagmatch (W): 0.989695
 Selection Logic (W): 0.225484
 decode_power (W): 0.976583
 wordline_power (W): 1.0557
 bitline_power (W): 37.0291
Load/Store Queue Power Consumption: 3.89593  (1.75%)
 tagdrive (W): 0.980932
 tagmatch (W): 0.214942
 decode_power (W): 0.0159915
 wordline_power (W): 0.0433172
 bitline_power (W): 2.64075
Arch. Register File Power Consumption: 25.1387  (11.3%)
 decode_power (W): 0.454058
 wordline_power (W): 1.0557
 bitline_power (W): 23.629
Result Bus Power Consumption: 31.3281  (14%)
Total Clock Power: 61.2631  (27.4%)
Int ALU Power: 4.66013  (2.09%)
FP ALU Power: 28.5621  (12.8%)
Instruction Cache Power Consumption: 2.76773  (1.24%)
 decode_power (W): 0.151353
 wordline_power (W): 0.180479
 bitline_power (W): 1.42251
 senseamp_power (W): 0.768
 tagarray_power (W): 0.245382
Itlb_power (W): 0.264936 (0.119%)
Data Cache Power Consumption: 11.0709  (4.96%)
 decode_power (W): 0.60541
 wordline_power (W): 0.721917
 bitline_power (W): 5.69006
 senseamp_power (W): 3.072
 tagarray_power (W): 0.981529
Dtlb_power (W): 1.80688 (0.81%)
Level 2 Cache Power Consumption: 3.10298 (1.39%)
 decode_power (W): 0.19487
 wordline_power (W): 0.0430878
 bitline_power (W): 1.77274
 senseamp_power (W): 0.192
 tagarray_power (W): 0.900275
sim: loading EIO file: ../benchmarks/177.mesa.spec_ref.eio.gz
sim: command line: ./sim-outorder -config ../configs/current.config ../benchmarks/177.mesa.spec_ref.eio.gz 

sim: simulation started @ Tue Nov 24 11:32:03 2015, options follow:

sim-outorder: This simulator implements a very detailed out-of-order issue
superscalar processor with a two-level memory system and speculative
execution support.  This simulator is a performance simulator, tracking the
latency of all pipeline operations.

# -config                     # load configuration from a file
# -dumpconfig                 # dump configuration to a file
# -h                    false # print help message    
# -v                    false # verbose operation     
# -d                    false # enable debug message  
# -i                    false # start in Dlite debugger
-seed                       1 # random number generator seed (0 for timer seed)
# -q                    false # initialize and terminate immediately
# -chkpt               <null> # restore EIO trace execution from <fname>
# -redir:sim     ../results/21_20_matt/177.mesa.spec_ref.eio.gz.out # redirect simulator output to file (non-interactive only)
# -redir:prog       /dev/null # redirect simulated program output to file
-nice                       0 # simulator scheduling priority
-freq            600000000.0000 # frequency             
-max:inst           100000000 # maximum number of inst's to execute
-fastfwd                    0 # number of insts skipped before timing starts
# -ptrace              <null> # generate pipetrace, i.e., <fname|stdout|stderr> <range>
-fetch:ifqsize             16 # instruction fetch queue size (in insts)
-fetch:mplat               15 # extra branch mis-prediction latency
-fetch:speed                1 # speed of front-end of machine relative to execution core
-bpred                   2lev # branch predictor type {nottaken|taken|perfect|bimod|2lev|comb}
-bpred:bimod     2048 # bimodal predictor config (<table size>)
-bpred:2lev      1 1024 4 0 # 2-level predictor config (<l1size> <l2size> <hist_size> <xor>)
-bpred:comb      1024 # combining predictor config (<meta_table_size>)
-bpred:ras                  8 # return address stack size (0 for no return stack)
-bpred:btb       512 4 # BTB config (<num_sets> <associativity>)
# -bpred:spec_update       <null> # speculative predictors update in {ID|WB} (default non-spec)
-decode:width              16 # instruction decode B/W (insts/cycle)
-issue:width               16 # instruction issue B/W (insts/cycle)
-issue:inorder          false # run pipeline with in-order issue
-issue:wrongpath         true # issue instructions down wrong execution paths
-commit:width              16 # instruction commit B/W (insts/cycle)
-ruu:size                  64 # register update unit (RUU) size
-lsq:size                   8 # load/store queue (LSQ) size
-cache:dl1       dl1:32:64:8:f # l1 data cache config, i.e., {<config>|none}
-cache:dl1lat               1 # l1 data cache hit latency (in cycles)
-cache:dl2       dl2:256:64:8:f # l2 data cache config, i.e., {<config>|none}
-cache:dl2lat               2 # l2 data cache hit latency (in cycles)
-cache:il1       il1:32:64:8:f # l1 inst cache config, i.e., {<config>|dl1|dl2|none}
-cache:il1lat               1 # l1 instruction cache hit latency (in cycles)
-cache:il2                dl2 # l2 instruction cache config, i.e., {<config>|dl2|none}
-cache:il2lat               2 # l2 instruction cache hit latency (in cycles)
-cache:flush            false # flush caches on system calls
-cache:icompress        false # convert 64-bit inst addresses to 32-bit inst equivalents
-mem:lat         103 1 # memory access latency (<first_chunk> <inter_chunk>)
-mem:width                  8 # memory access bus width (in bytes)
-tlb:itlb        itlb:16:4096:4:l # instruction TLB config, i.e., {<config>|none}
-tlb:dtlb        dtlb:32:4096:4:l # data TLB config, i.e., {<config>|none}
-tlb:lat                   30 # inst/data TLB miss latency (in cycles)
-res:ialu                   4 # total number of integer ALU's available
-res:imult                  2 # total number of integer multiplier/dividers available
-res:memport                4 # total number of memory system ports available (to CPU)
-res:fpalu                  8 # total number of floating point ALU's available
-res:fpmult                 2 # total number of floating point multiplier/dividers available
# -pcstat              <null> # profile stat(s) against text addr's (mult uses ok)
-bugcompat              false # operate in backward-compatible bugs mode (for testing only)

  Pipetrace range arguments are formatted as follows:

    {{@|#}<start>}:{{@|#|+}<end>}

  Both ends of the range are optional, if neither are specified, the entire
  execution is traced.  Ranges that start with a `@' designate an address
  range to be traced, those that start with an `#' designate a cycle count
  range.  All other range values represent an instruction count range.  The
  second argument, if specified with a `+', indicates a value relative
  to the first argument, e.g., 1000:+100 == 1000:1100.  Program symbols may
  be used in all contexts.

    Examples:   -ptrace FOO.trc #0:#1000
                -ptrace BAR.trc @2000:
                -ptrace BLAH.trc :1500
                -ptrace UXXE.trc :
                -ptrace FOOBAR.trc @main:+278

  Branch predictor configuration examples for 2-level predictor:
    Configurations:   N, M, W, X
      N   # entries in first level (# of shift register(s))
      W   width of shift register(s)
      M   # entries in 2nd level (# of counters, or other FSM)
      X   (yes-1/no-0) xor history and address for 2nd level index
    Sample predictors:
      GAg     : 1, W, 2^W, 0
      GAp     : 1, W, M (M > 2^W), 0
      PAg     : N, W, 2^W, 0
      PAp     : N, W, M (M == 2^(N+W)), 0
      gshare  : 1, W, 2^W, 1
  Predictor `comb' combines a bimodal and a 2-level predictor.

  The cache config parameter <config> has the following format:

    <name>:<nsets>:<bsize>:<assoc>:<repl>

    <name>   - name of the cache being defined
    <nsets>  - number of sets in the cache
    <bsize>  - block size of the cache
    <assoc>  - associativity of the cache
    <repl>   - block replacement strategy, 'l'-LRU, 'f'-FIFO, 'r'-random

    Examples:   -cache:dl1 dl1:4096:32:1:l
                -dtlb dtlb:128:4096:32:r

  Cache levels can be unified by pointing a level of the instruction cache
  hierarchy at the data cache hiearchy using the "dl1" and "dl2" cache
  configuration arguments.  Most sensible combinations are supported, e.g.,

    A unified l2 cache (il2 is pointed at dl2):
      -cache:il1 il1:128:64:1:l -cache:il2 dl2
      -cache:dl1 dl1:256:32:1:l -cache:dl2 ul2:1024:64:2:l

    Or, a fully unified cache hierarchy (il1 pointed at dl1):
      -cache:il1 dl1
      -cache:dl1 ul1:256:32:1:l -cache:dl2 ul2:1024:64:2:l



sim: ** starting performance simulation **

sim: ** simulation statistics **
sim_num_insn              100000001 # total number of instructions committed
sim_num_refs               39005167 # total number of loads and stores committed
sim_num_loads              27138656 # total number of loads committed
sim_num_stores         11866511.0000 # total number of stores committed
sim_num_branches            8691668 # total number of branches committed
sim_elapsed_time                113 # total simulation time in seconds
sim_inst_rate           884955.7611 # simulation speed (in insts/sec)
sim_total_insn            105344401 # total number of instructions executed
sim_total_refs             40939906 # total number of loads and stores executed
sim_total_loads            28587120 # total number of loads executed
sim_total_stores       12352786.0000 # total number of stores executed
sim_total_branches          9107760 # total number of branches executed
sim_cycle                  54513850 # total simulation time in cycles
sim_IPC                      1.8344 # instructions per cycle
sim_CPI                      0.5451 # cycles per instruction
sim_exec_BW                  1.9324 # total instructions (mis-spec + committed) per cycle
sim_IPB                     11.5053 # instruction per branch
IFQ_count                 663943337 # cumulative IFQ occupancy
IFQ_fcount                 38347910 # cumulative IFQ full count
ifq_occupancy               12.1794 # avg IFQ occupancy (insn's)
ifq_rate                     1.9324 # avg IFQ dispatch rate (insn/cycle)
ifq_latency                  6.3026 # avg IFQ occupant latency (cycle's)
ifq_full                     0.7035 # fraction of time (cycle's) IFQ was full
RUU_count                 989521257 # cumulative RUU occupancy
RUU_fcount                   329976 # cumulative RUU full count
ruu_occupancy               18.1517 # avg RUU occupancy (insn's)
ruu_rate                     1.9324 # avg RUU dispatch rate (insn/cycle)
ruu_latency                  9.3932 # avg RUU occupant latency (cycle's)
ruu_full                     0.0061 # fraction of time (cycle's) RUU was full
LSQ_count                 349835917 # cumulative LSQ occupancy
LSQ_fcount                 39708143 # cumulative LSQ full count
lsq_occupancy                6.4174 # avg LSQ occupancy (insn's)
lsq_rate                     1.9324 # avg LSQ dispatch rate (insn/cycle)
lsq_latency                  3.3209 # avg LSQ occupant latency (cycle's)
lsq_full                     0.7284 # fraction of time (cycle's) LSQ was full
sim_slip                 1455484369 # total number of slip cycles
avg_sim_slip                14.5548 # the average slip between issue and retirement
bpred_2lev.lookups          9538511 # total number of bpred lookups
bpred_2lev.updates          8691664 # total number of updates
bpred_2lev.addr_hits        8046795 # total number of address-predicted hits
bpred_2lev.dir_hits         8047358 # total number of direction-predicted hits (includes addr-hits)
bpred_2lev.misses            644306 # total number of misses
bpred_2lev.jr_hits          1596051 # total number of address-predicted hits for JR's
bpred_2lev.jr_seen          1596376 # total number of JR's seen
bpred_2lev.jr_non_ras_hits.PP       509889 # total number of address-predicted hits for non-RAS JR's
bpred_2lev.jr_non_ras_seen.PP       509915 # total number of non-RAS JR's seen
bpred_2lev.bpred_addr_rate    0.9258 # branch address-prediction rate (i.e., addr-hits/updates)
bpred_2lev.bpred_dir_rate    0.9259 # branch direction-prediction rate (i.e., all-hits/updates)
bpred_2lev.bpred_jr_rate    0.9998 # JR address-prediction rate (i.e., JR addr-hits/JRs seen)
bpred_2lev.bpred_jr_non_ras_rate.PP    0.9999 # non-RAS JR addr-pred rate (ie, non-RAS JR hits/JRs seen)
bpred_2lev.retstack_pushes      1155332 # total number of address pushed onto ret-addr stack
bpred_2lev.retstack_pops      1194053 # total number of address popped off of ret-addr stack
bpred_2lev.used_ras.PP      1086461 # total number of RAS predictions used
bpred_2lev.ras_hits.PP      1086162 # total number of RAS hits
bpred_2lev.ras_rate.PP    0.9997 # RAS prediction rate (i.e., RAS hits/used RAS)
il1.accesses              111689479 # total number of accesses
il1.hits                  111638528 # total number of hits
il1.misses                    50951 # total number of misses
il1.replacements              50695 # total number of replacements
il1.writebacks                    0 # total number of writebacks
il1.invalidations                 0 # total number of invalidations
il1.miss_rate                0.0005 # miss rate (i.e., misses/ref)
il1.repl_rate                0.0005 # replacement rate (i.e., repls/ref)
il1.wb_rate                  0.0000 # writeback rate (i.e., wrbks/ref)
il1.inv_rate                 0.0000 # invalidation rate (i.e., invs/ref)
dl1.accesses               38103865 # total number of accesses
dl1.hits                   37838763 # total number of hits
dl1.misses                   265102 # total number of misses
dl1.replacements             264846 # total number of replacements
dl1.writebacks               204487 # total number of writebacks
dl1.invalidations                 0 # total number of invalidations
dl1.miss_rate                0.0070 # miss rate (i.e., misses/ref)
dl1.repl_rate                0.0070 # replacement rate (i.e., repls/ref)
dl1.wb_rate                  0.0054 # writeback rate (i.e., wrbks/ref)
dl1.inv_rate                 0.0000 # invalidation rate (i.e., invs/ref)
dl2.accesses                 520540 # total number of accesses
dl2.hits                     350072 # total number of hits
dl2.misses                   170468 # total number of misses
dl2.replacements             168420 # total number of replacements
dl2.writebacks               154002 # total number of writebacks
dl2.invalidations                 0 # total number of invalidations
dl2.miss_rate                0.3275 # miss rate (i.e., misses/ref)
dl2.repl_rate                0.3235 # replacement rate (i.e., repls/ref)
dl2.wb_rate                  0.2959 # writeback rate (i.e., wrbks/ref)
dl2.inv_rate                 0.0000 # invalidation rate (i.e., invs/ref)
itlb.accesses             111689479 # total number of accesses
itlb.hits                 111689422 # total number of hits
itlb.misses                      57 # total number of misses
itlb.replacements                 2 # total number of replacements
itlb.writebacks                   0 # total number of writebacks
itlb.invalidations                0 # total number of invalidations
itlb.miss_rate               0.0000 # miss rate (i.e., misses/ref)
itlb.repl_rate               0.0000 # replacement rate (i.e., repls/ref)
itlb.wb_rate                 0.0000 # writeback rate (i.e., wrbks/ref)
itlb.inv_rate                0.0000 # invalidation rate (i.e., invs/ref)
dtlb.accesses              39162055 # total number of accesses
dtlb.hits                  39117739 # total number of hits
dtlb.misses                   44316 # total number of misses
dtlb.replacements             44188 # total number of replacements
dtlb.writebacks                   0 # total number of writebacks
dtlb.invalidations                0 # total number of invalidations
dtlb.miss_rate               0.0011 # miss rate (i.e., misses/ref)
dtlb.repl_rate               0.0011 # replacement rate (i.e., repls/ref)
dtlb.wb_rate                 0.0000 # writeback rate (i.e., wrbks/ref)
dtlb.inv_rate                0.0000 # invalidation rate (i.e., invs/ref)
rename_power           178299458.6584 # total power usage of rename unit
bpred_power            155278595.3233 # total power usage of bpred unit
window_power           2355872157.0163 # total power usage of instruction window
lsq_power              212382057.1299 # total power usage of load/store queue
regfile_power          1370409647.9311 # total power usage of arch. regfile
icache_power           165322200.8164 # total power usage of icache
dcache_power           702018246.4276 # total power usage of dcache
dcache2_power          169155210.1880 # total power usage of dcache2
alu_power              1811071137.7394 # total power usage of alu
falu_power             1557029485.3087 # total power usage of falu
resultbus_power        1707816225.1317 # total power usage of resultbus
clock_power            3339686756.4855 # total power usage of clock
avg_rename_power             3.2707 # avg power usage of rename unit
avg_bpred_power              2.8484 # avg power usage of bpred unit
avg_window_power            43.2160 # avg power usage of instruction window
avg_lsq_power                3.8959 # avg power usage of lsq
avg_regfile_power           25.1387 # avg power usage of arch. regfile
avg_icache_power             3.0327 # avg power usage of icache
avg_dcache_power            12.8778 # avg power usage of dcache
avg_dcache2_power            3.1030 # avg power usage of dcache2
avg_alu_power               33.2222 # avg power usage of alu
avg_falu_power              28.5621 # avg power usage of falu
avg_resultbus_power         31.3281 # avg power usage of resultbus
avg_clock_power             61.2631 # avg power usage of clock
fetch_stage_power      320600796.1397 # total power usage of fetch stage
dispatch_stage_power   178299458.6584 # total power usage of dispatch stage
issue_stage_power      6958315033.6330 # total power usage of issue stage
avg_fetch_power              5.8811 # average power of fetch unit per cycle
avg_dispatch_power           3.2707 # average power of dispatch unit per cycle
avg_issue_power            127.6431 # average power of issue unit per cycle
total_power            12167311692.8477 # total power per cycle
avg_total_power_cycle      223.1967 # average total power per cycle
avg_total_power_cycle_nofp_nod2     191.5316 # average total power per cycle
avg_total_power_insn       115.5003 # average total power per insn
avg_total_power_insn_nofp_nod2      99.1142 # average total power per insn
rename_power_cc1       58214207.4125 # total power usage of rename unit_cc1
bpred_power_cc1        19624834.1738 # total power usage of bpred unit_cc1
window_power_cc1       1412065965.1102 # total power usage of instruction window_cc1
lsq_power_cc1          36573325.5640 # total power usage of lsq_cc1
regfile_power_cc1      632883621.2420 # total power usage of arch. regfile_cc1
icache_power_cc1       59614183.9239 # total power usage of icache_cc1
dcache_power_cc1       257108972.6040 # total power usage of dcache_cc1
dcache2_power_cc1       965052.9272 # total power usage of dcache2_cc1
alu_power_cc1          362156336.8895 # total power usage of alu_cc1
resultbus_power_cc1    991606625.9691 # total power usage of resultbus_cc1
clock_power_cc1        1161554524.3762 # total power usage of clock_cc1
avg_rename_power_cc1         1.0679 # avg power usage of rename unit_cc1
avg_bpred_power_cc1          0.3600 # avg power usage of bpred unit_cc1
avg_window_power_cc1        25.9029 # avg power usage of instruction window_cc1
avg_lsq_power_cc1            0.6709 # avg power usage of lsq_cc1
avg_regfile_power_cc1       11.6096 # avg power usage of arch. regfile_cc1
avg_icache_power_cc1         1.0936 # avg power usage of icache_cc1
avg_dcache_power_cc1         4.7164 # avg power usage of dcache_cc1
avg_dcache2_power_cc1        0.0177 # avg power usage of dcache2_cc1
avg_alu_power_cc1            6.6434 # avg power usage of alu_cc1
avg_resultbus_power_cc1      18.1900 # avg power usage of resultbus_cc1
avg_clock_power_cc1         21.3075 # avg power usage of clock_cc1
fetch_stage_power_cc1  79239018.0976 # total power usage of fetch stage_cc1
dispatch_stage_power_cc1 58214207.4125 # total power usage of dispatch stage_cc1
issue_stage_power_cc1  3060476279.0639 # total power usage of issue stage_cc1
avg_fetch_power_cc1          1.4536 # average power of fetch unit per cycle_cc1
avg_dispatch_power_cc1       1.0679 # average power of dispatch unit per cycle_cc1
avg_issue_power_cc1         56.1413 # average power of issue unit per cycle_cc1
total_power_cycle_cc1  4992367650.1922 # total power per cycle_cc1
avg_total_power_cycle_cc1      91.5798 # average total power per cycle_cc1
avg_total_power_insn_cc1      47.3909 # average total power per insn_cc1
rename_power_cc2       21534492.7131 # total power usage of rename unit_cc2
bpred_power_cc2        12378775.0797 # total power usage of bpred unit_cc2
window_power_cc2       411763640.5320 # total power usage of instruction window_cc2
lsq_power_cc2          15253574.9848 # total power usage of lsq_cc2
regfile_power_cc2      75099252.5665 # total power usage of arch. regfile_cc2
icache_power_cc2       59614183.9239 # total power usage of icache_cc2
dcache_power_cc2       122673451.1525 # total power usage of dcache_cc2
dcache2_power_cc2       403805.8822 # total power usage of dcache2_cc2
alu_power_cc2          150708518.5447 # total power usage of alu_cc2
resultbus_power_cc2    219722118.3804 # total power usage of resultbus_cc2
clock_power_cc2        331796607.4861 # total power usage of clock_cc2
avg_rename_power_cc2         0.3950 # avg power usage of rename unit_cc2
avg_bpred_power_cc2          0.2271 # avg power usage of bpred unit_cc2
avg_window_power_cc2         7.5534 # avg power usage of instruction window_cc2
avg_lsq_power_cc2            0.2798 # avg power usage of instruction lsq_cc2
avg_regfile_power_cc2        1.3776 # avg power usage of arch. regfile_cc2
avg_icache_power_cc2         1.0936 # avg power usage of icache_cc2
avg_dcache_power_cc2         2.2503 # avg power usage of dcache_cc2
avg_dcache2_power_cc2        0.0074 # avg power usage of dcache2_cc2
avg_alu_power_cc2            2.7646 # avg power usage of alu_cc2
avg_resultbus_power_cc2       4.0306 # avg power usage of resultbus_cc2
avg_clock_power_cc2          6.0865 # avg power usage of clock_cc2
fetch_stage_power_cc2  71992959.0035 # total power usage of fetch stage_cc2
dispatch_stage_power_cc2 21534492.7131 # total power usage of dispatch stage_cc2
issue_stage_power_cc2  920525109.4767 # total power usage of issue stage_cc2
avg_fetch_power_cc2          1.3206 # average power of fetch unit per cycle_cc2
avg_dispatch_power_cc2       0.3950 # average power of dispatch unit per cycle_cc2
avg_issue_power_cc2         16.8861 # average power of issue unit per cycle_cc2
total_power_cycle_cc2  1420948421.2459 # total power per cycle_cc2
avg_total_power_cycle_cc2      26.0658 # average total power per cycle_cc2
avg_total_power_insn_cc2      13.4886 # average total power per insn_cc2
rename_power_cc3       33543017.8796 # total power usage of rename unit_cc3
bpred_power_cc3        26008380.6240 # total power usage of bpred unit_cc3
window_power_cc3       489154029.6874 # total power usage of instruction window_cc3
lsq_power_cc3          32429475.2787 # total power usage of lsq_cc3
regfile_power_cc3      141143918.2028 # total power usage of arch. regfile_cc3
icache_power_cc3       70184985.6663 # total power usage of icache_cc3
dcache_power_cc3       167320358.2048 # total power usage of dcache_cc3
dcache2_power_cc3      17222832.7150 # total power usage of dcache2_cc3
alu_power_cc3          295599998.3008 # total power usage of alu_cc3
resultbus_power_cc3    284732367.1349 # total power usage of resultbus_cc3
clock_power_cc3        540180589.1778 # total power usage of clock_cc3
avg_rename_power_cc3         0.6153 # avg power usage of rename unit_cc3
avg_bpred_power_cc3          0.4771 # avg power usage of bpred unit_cc3
avg_window_power_cc3         8.9730 # avg power usage of instruction window_cc3
avg_lsq_power_cc3            0.5949 # avg power usage of instruction lsq_cc3
avg_regfile_power_cc3        2.5891 # avg power usage of arch. regfile_cc3
avg_icache_power_cc3         1.2875 # avg power usage of icache_cc3
avg_dcache_power_cc3         3.0693 # avg power usage of dcache_cc3
avg_dcache2_power_cc3        0.3159 # avg power usage of dcache2_cc3
avg_alu_power_cc3            5.4225 # avg power usage of alu_cc3
avg_resultbus_power_cc3       5.2231 # avg power usage of resultbus_cc3
avg_clock_power_cc3          9.9091 # avg power usage of clock_cc3
fetch_stage_power_cc3  96193366.2903 # total power usage of fetch stage_cc3
dispatch_stage_power_cc3 33543017.8796 # total power usage of dispatch stage_cc3
issue_stage_power_cc3  1286459061.3216 # total power usage of issue stage_cc3
avg_fetch_power_cc3          1.7646 # average power of fetch unit per cycle_cc3
avg_dispatch_power_cc3       0.6153 # average power of dispatch unit per cycle_cc3
avg_issue_power_cc3         23.5988 # average power of issue unit per cycle_cc3
total_power_cycle_cc3  2097519952.8721 # total power per cycle_cc3
avg_total_power_cycle_cc3      38.4768 # average total power per cycle_cc3
avg_total_power_insn_cc3      19.9111 # average total power per insn_cc3
total_rename_access       105344401 # total number accesses of rename unit
total_bpred_access          8691664 # total number accesses of bpred unit
total_window_access       401318025 # total number accesses of instruction window
total_lsq_access           40242266 # total number accesses of load/store queue
total_regfile_access      164205317 # total number accesses of arch. regfile
total_icache_access       112475460 # total number accesses of icache
total_dcache_access        38103865 # total number accesses of dcache
total_dcache2_access         520540 # total number accesses of dcache2
total_alu_access          101346831 # total number accesses of alu
total_resultbus_access    119698361 # total number accesses of resultbus
avg_rename_access            1.9324 # avg number accesses of rename unit
avg_bpred_access             0.1594 # avg number accesses of bpred unit
avg_window_access            7.3618 # avg number accesses of instruction window
avg_lsq_access               0.7382 # avg number accesses of lsq
avg_regfile_access           3.0122 # avg number accesses of arch. regfile
avg_icache_access            2.0632 # avg number accesses of icache
avg_dcache_access            0.6990 # avg number accesses of dcache
avg_dcache2_access           0.0095 # avg number accesses of dcache2
avg_alu_access               1.8591 # avg number accesses of alu
avg_resultbus_access         2.1957 # avg number accesses of resultbus
max_rename_access                16 # max number accesses of rename unit
max_bpred_access                  5 # max number accesses of bpred unit
max_window_access                45 # max number accesses of instruction window
max_lsq_access                   10 # max number accesses of load/store queue
max_regfile_access               43 # max number accesses of arch. regfile
max_icache_access                16 # max number accesses of icache
max_dcache_access                 8 # max number accesses of dcache
max_dcache2_access                6 # max number accesses of dcache2
max_alu_access                   14 # max number accesses of alu
max_resultbus_access             13 # max number accesses of resultbus
max_cycle_power_cc1        179.1251 # maximum cycle power usage of cc1
max_cycle_power_cc2        100.6046 # maximum cycle power usage of cc2
max_cycle_power_cc3        109.7263 # maximum cycle power usage of cc3
sim_invalid_addrs                 0 # total non-speculative bogus addresses seen (debug var)
ld_text_base           0x0120000000 # program text (code) segment base
ld_text_size                 917504 # program text (code) size in bytes
ld_data_base           0x0140000000 # program initialized data segment base
ld_data_size                  91168 # program init'ed `.data' and uninit'ed `.bss' size in bytes
ld_stack_base          0x011ff9b000 # program stack segment base (highest address in stack)
ld_stack_size                 16384 # program initial stack size
ld_prog_entry          0x0120073d5c # program entry point (initial PC)
ld_environ_base        0x011ff96df0 # program environment base address address
ld_target_big_endian              0 # target executable endian-ness, non-zero if big endian
mem.page_count                 1310 # total number of pages allocated
mem.page_mem                 10480k # total size of memory pages allocated
mem.ptab_misses                1892 # total first level page table misses
mem.ptab_accesses         675251031 # total page table accesses
mem.ptab_miss_rate           0.0000 # first level page table miss rate

