sim-outorder: SimpleScalar/Alpha Tool Set version 3.0 of August, 2003.
Copyright (c) 1994-2003 by Todd M. Austin, Ph.D. and SimpleScalar, LLC.
All Rights Reserved. This version of SimpleScalar is licensed for academic
non-commercial use.  No portion of this work may be used by any commercial
entity, or for any commercial purpose, without the prior written permission
of SimpleScalar, LLC (info@simplescalar.com).


Processor Parameters:
Issue Width: 16
Window Size: 64
Number of Virtual Registers: 32
Number of Physical Registers: 64
Datapath Width: 64
Total Power Consumption: 225.197
Branch Predictor Power Consumption: 2.84842  (1.28%)
 branch target buffer power (W): 2.49493
 local predict power (W): 0.0867068
 global predict power (W): 0.0996078
 chooser power (W): 0.0702439
 RAS power (W): 0.0969383
Rename Logic Power Consumption: 3.27072  (1.47%)
 Instruction Decode Power (W): 0.0639661
 RAT decode_power (W): 0.454058
 RAT wordline_power (W): 0.227603
 RAT bitline_power (W): 2.30694
 DCL Comparators (W): 0.218151
Instruction Window Power Consumption: 43.216  (19.4%)
 tagdrive (W): 2.9395
 tagmatch (W): 0.989695
 Selection Logic (W): 0.225484
 decode_power (W): 0.976583
 wordline_power (W): 1.0557
 bitline_power (W): 37.0291
Load/Store Queue Power Consumption: 3.89593  (1.75%)
 tagdrive (W): 0.980932
 tagmatch (W): 0.214942
 decode_power (W): 0.0159915
 wordline_power (W): 0.0433172
 bitline_power (W): 2.64075
Arch. Register File Power Consumption: 25.1387  (11.3%)
 decode_power (W): 0.454058
 wordline_power (W): 1.0557
 bitline_power (W): 23.629
Result Bus Power Consumption: 31.3281  (14%)
Total Clock Power: 61.2631  (27.4%)
Int ALU Power: 4.66013  (2.09%)
FP ALU Power: 28.5621  (12.8%)
Instruction Cache Power Consumption: 2.76773  (1.24%)
 decode_power (W): 0.151353
 wordline_power (W): 0.180479
 bitline_power (W): 1.42251
 senseamp_power (W): 0.768
 tagarray_power (W): 0.245382
Itlb_power (W): 0.264936 (0.119%)
Data Cache Power Consumption: 11.0709  (4.96%)
 decode_power (W): 0.60541
 wordline_power (W): 0.721917
 bitline_power (W): 5.69006
 senseamp_power (W): 3.072
 tagarray_power (W): 0.981529
Dtlb_power (W): 1.80688 (0.81%)
Level 2 Cache Power Consumption: 3.10298 (1.39%)
 decode_power (W): 0.19487
 wordline_power (W): 0.0430878
 bitline_power (W): 1.77274
 senseamp_power (W): 0.192
 tagarray_power (W): 0.900275
sim: loading EIO file: ../benchmarks/181.mcf.spec_ref.eio.gz
sim: command line: ./sim-outorder -config ../configs/current.config ../benchmarks/181.mcf.spec_ref.eio.gz 

sim: simulation started @ Tue Nov 24 11:32:15 2015, options follow:

sim-outorder: This simulator implements a very detailed out-of-order issue
superscalar processor with a two-level memory system and speculative
execution support.  This simulator is a performance simulator, tracking the
latency of all pipeline operations.

# -config                     # load configuration from a file
# -dumpconfig                 # dump configuration to a file
# -h                    false # print help message    
# -v                    false # verbose operation     
# -d                    false # enable debug message  
# -i                    false # start in Dlite debugger
-seed                       1 # random number generator seed (0 for timer seed)
# -q                    false # initialize and terminate immediately
# -chkpt               <null> # restore EIO trace execution from <fname>
# -redir:sim     ../results/21_20_matt/181.mcf.spec_ref.eio.gz.out # redirect simulator output to file (non-interactive only)
# -redir:prog       /dev/null # redirect simulated program output to file
-nice                       0 # simulator scheduling priority
-freq            600000000.0000 # frequency             
-max:inst           100000000 # maximum number of inst's to execute
-fastfwd                    0 # number of insts skipped before timing starts
# -ptrace              <null> # generate pipetrace, i.e., <fname|stdout|stderr> <range>
-fetch:ifqsize             16 # instruction fetch queue size (in insts)
-fetch:mplat               15 # extra branch mis-prediction latency
-fetch:speed                1 # speed of front-end of machine relative to execution core
-bpred                   2lev # branch predictor type {nottaken|taken|perfect|bimod|2lev|comb}
-bpred:bimod     2048 # bimodal predictor config (<table size>)
-bpred:2lev      1 1024 4 0 # 2-level predictor config (<l1size> <l2size> <hist_size> <xor>)
-bpred:comb      1024 # combining predictor config (<meta_table_size>)
-bpred:ras                  8 # return address stack size (0 for no return stack)
-bpred:btb       512 4 # BTB config (<num_sets> <associativity>)
# -bpred:spec_update       <null> # speculative predictors update in {ID|WB} (default non-spec)
-decode:width              16 # instruction decode B/W (insts/cycle)
-issue:width               16 # instruction issue B/W (insts/cycle)
-issue:inorder          false # run pipeline with in-order issue
-issue:wrongpath         true # issue instructions down wrong execution paths
-commit:width              16 # instruction commit B/W (insts/cycle)
-ruu:size                  64 # register update unit (RUU) size
-lsq:size                   8 # load/store queue (LSQ) size
-cache:dl1       dl1:32:64:8:f # l1 data cache config, i.e., {<config>|none}
-cache:dl1lat               1 # l1 data cache hit latency (in cycles)
-cache:dl2       dl2:256:64:8:f # l2 data cache config, i.e., {<config>|none}
-cache:dl2lat               2 # l2 data cache hit latency (in cycles)
-cache:il1       il1:32:64:8:f # l1 inst cache config, i.e., {<config>|dl1|dl2|none}
-cache:il1lat               1 # l1 instruction cache hit latency (in cycles)
-cache:il2                dl2 # l2 instruction cache config, i.e., {<config>|dl2|none}
-cache:il2lat               2 # l2 instruction cache hit latency (in cycles)
-cache:flush            false # flush caches on system calls
-cache:icompress        false # convert 64-bit inst addresses to 32-bit inst equivalents
-mem:lat         103 1 # memory access latency (<first_chunk> <inter_chunk>)
-mem:width                  8 # memory access bus width (in bytes)
-tlb:itlb        itlb:16:4096:4:l # instruction TLB config, i.e., {<config>|none}
-tlb:dtlb        dtlb:32:4096:4:l # data TLB config, i.e., {<config>|none}
-tlb:lat                   30 # inst/data TLB miss latency (in cycles)
-res:ialu                   4 # total number of integer ALU's available
-res:imult                  2 # total number of integer multiplier/dividers available
-res:memport                4 # total number of memory system ports available (to CPU)
-res:fpalu                  8 # total number of floating point ALU's available
-res:fpmult                 2 # total number of floating point multiplier/dividers available
# -pcstat              <null> # profile stat(s) against text addr's (mult uses ok)
-bugcompat              false # operate in backward-compatible bugs mode (for testing only)

  Pipetrace range arguments are formatted as follows:

    {{@|#}<start>}:{{@|#|+}<end>}

  Both ends of the range are optional, if neither are specified, the entire
  execution is traced.  Ranges that start with a `@' designate an address
  range to be traced, those that start with an `#' designate a cycle count
  range.  All other range values represent an instruction count range.  The
  second argument, if specified with a `+', indicates a value relative
  to the first argument, e.g., 1000:+100 == 1000:1100.  Program symbols may
  be used in all contexts.

    Examples:   -ptrace FOO.trc #0:#1000
                -ptrace BAR.trc @2000:
                -ptrace BLAH.trc :1500
                -ptrace UXXE.trc :
                -ptrace FOOBAR.trc @main:+278

  Branch predictor configuration examples for 2-level predictor:
    Configurations:   N, M, W, X
      N   # entries in first level (# of shift register(s))
      W   width of shift register(s)
      M   # entries in 2nd level (# of counters, or other FSM)
      X   (yes-1/no-0) xor history and address for 2nd level index
    Sample predictors:
      GAg     : 1, W, 2^W, 0
      GAp     : 1, W, M (M > 2^W), 0
      PAg     : N, W, 2^W, 0
      PAp     : N, W, M (M == 2^(N+W)), 0
      gshare  : 1, W, 2^W, 1
  Predictor `comb' combines a bimodal and a 2-level predictor.

  The cache config parameter <config> has the following format:

    <name>:<nsets>:<bsize>:<assoc>:<repl>

    <name>   - name of the cache being defined
    <nsets>  - number of sets in the cache
    <bsize>  - block size of the cache
    <assoc>  - associativity of the cache
    <repl>   - block replacement strategy, 'l'-LRU, 'f'-FIFO, 'r'-random

    Examples:   -cache:dl1 dl1:4096:32:1:l
                -dtlb dtlb:128:4096:32:r

  Cache levels can be unified by pointing a level of the instruction cache
  hierarchy at the data cache hiearchy using the "dl1" and "dl2" cache
  configuration arguments.  Most sensible combinations are supported, e.g.,

    A unified l2 cache (il2 is pointed at dl2):
      -cache:il1 il1:128:64:1:l -cache:il2 dl2
      -cache:dl1 dl1:256:32:1:l -cache:dl2 ul2:1024:64:2:l

    Or, a fully unified cache hierarchy (il1 pointed at dl1):
      -cache:il1 dl1
      -cache:dl1 ul1:256:32:1:l -cache:dl2 ul2:1024:64:2:l



sim: ** starting performance simulation **

sim: ** simulation statistics **
sim_num_insn              100000007 # total number of instructions committed
sim_num_refs               46842326 # total number of loads and stores committed
sim_num_loads              39933142 # total number of loads committed
sim_num_stores         6909184.0000 # total number of stores committed
sim_num_branches           23131427 # total number of branches committed
sim_elapsed_time                320 # total simulation time in seconds
sim_inst_rate           312500.0219 # simulation speed (in insts/sec)
sim_total_insn            119172021 # total number of instructions executed
sim_total_refs             55667527 # total number of loads and stores executed
sim_total_loads            47994456 # total number of loads executed
sim_total_stores       7673071.0000 # total number of stores executed
sim_total_branches         27437509 # total number of branches executed
sim_cycle                 590554783 # total simulation time in cycles
sim_IPC                      0.1693 # instructions per cycle
sim_CPI                      5.9055 # cycles per instruction
sim_exec_BW                  0.2018 # total instructions (mis-spec + committed) per cycle
sim_IPB                      4.3231 # instruction per branch
IFQ_count                8931346258 # cumulative IFQ occupancy
IFQ_fcount                548596165 # cumulative IFQ full count
ifq_occupancy               15.1237 # avg IFQ occupancy (insn's)
ifq_rate                     0.2018 # avg IFQ dispatch rate (insn/cycle)
ifq_latency                 74.9450 # avg IFQ occupant latency (cycle's)
ifq_full                     0.9290 # fraction of time (cycle's) IFQ was full
RUU_count                8805225828 # cumulative RUU occupancy
RUU_fcount                        0 # cumulative RUU full count
ruu_occupancy               14.9101 # avg RUU occupancy (insn's)
ruu_rate                     0.2018 # avg RUU dispatch rate (insn/cycle)
ruu_latency                 73.8867 # avg RUU occupant latency (cycle's)
ruu_full                     0.0000 # fraction of time (cycle's) RUU was full
LSQ_count                4524188813 # cumulative LSQ occupancy
LSQ_fcount                559416308 # cumulative LSQ full count
lsq_occupancy                7.6609 # avg LSQ occupancy (insn's)
lsq_rate                     0.2018 # avg LSQ dispatch rate (insn/cycle)
lsq_latency                 37.9635 # avg LSQ occupant latency (cycle's)
lsq_full                     0.9473 # fraction of time (cycle's) LSQ was full
sim_slip                12451287697 # total number of slip cycles
avg_sim_slip               124.5129 # the average slip between issue and retirement
bpred_2lev.lookups         33741940 # total number of bpred lookups
bpred_2lev.updates         23131422 # total number of updates
bpred_2lev.addr_hits       21464873 # total number of address-predicted hits
bpred_2lev.dir_hits        21497967 # total number of direction-predicted hits (includes addr-hits)
bpred_2lev.misses           1633455 # total number of misses
bpred_2lev.jr_hits          1245036 # total number of address-predicted hits for JR's
bpred_2lev.jr_seen          1278084 # total number of JR's seen
bpred_2lev.jr_non_ras_hits.PP            0 # total number of address-predicted hits for non-RAS JR's
bpred_2lev.jr_non_ras_seen.PP            0 # total number of non-RAS JR's seen
bpred_2lev.bpred_addr_rate    0.9280 # branch address-prediction rate (i.e., addr-hits/updates)
bpred_2lev.bpred_dir_rate    0.9294 # branch direction-prediction rate (i.e., all-hits/updates)
bpred_2lev.bpred_jr_rate    0.9741 # JR address-prediction rate (i.e., JR addr-hits/JRs seen)
bpred_2lev.bpred_jr_non_ras_rate.PP <error: divide by zero> # non-RAS JR addr-pred rate (ie, non-RAS JR hits/JRs seen)
bpred_2lev.retstack_pushes      1822524 # total number of address pushed onto ret-addr stack
bpred_2lev.retstack_pops      2188277 # total number of address popped off of ret-addr stack
bpred_2lev.used_ras.PP      1278084 # total number of RAS predictions used
bpred_2lev.ras_hits.PP      1245036 # total number of RAS hits
bpred_2lev.ras_rate.PP    0.9741 # RAS prediction rate (i.e., RAS hits/used RAS)
il1.accesses              143304378 # total number of accesses
il1.hits                  143304325 # total number of hits
il1.misses                       53 # total number of misses
il1.replacements                  0 # total number of replacements
il1.writebacks                    0 # total number of writebacks
il1.invalidations                 0 # total number of invalidations
il1.miss_rate                0.0000 # miss rate (i.e., misses/ref)
il1.repl_rate                0.0000 # replacement rate (i.e., repls/ref)
il1.wb_rate                  0.0000 # writeback rate (i.e., wrbks/ref)
il1.inv_rate                 0.0000 # invalidation rate (i.e., invs/ref)
dl1.accesses               50449196 # total number of accesses
dl1.hits                   38088795 # total number of hits
dl1.misses                 12360401 # total number of misses
dl1.replacements           12360145 # total number of replacements
dl1.writebacks              5234703 # total number of writebacks
dl1.invalidations                 0 # total number of invalidations
dl1.miss_rate                0.2450 # miss rate (i.e., misses/ref)
dl1.repl_rate                0.2450 # replacement rate (i.e., repls/ref)
dl1.wb_rate                  0.1038 # writeback rate (i.e., wrbks/ref)
dl1.inv_rate                 0.0000 # invalidation rate (i.e., invs/ref)
dl2.accesses               17595157 # total number of accesses
dl2.hits                    6192950 # total number of hits
dl2.misses                 11402207 # total number of misses
dl2.replacements           11400159 # total number of replacements
dl2.writebacks              5024760 # total number of writebacks
dl2.invalidations                 0 # total number of invalidations
dl2.miss_rate                0.6480 # miss rate (i.e., misses/ref)
dl2.repl_rate                0.6479 # replacement rate (i.e., repls/ref)
dl2.wb_rate                  0.2856 # writeback rate (i.e., wrbks/ref)
dl2.inv_rate                 0.0000 # invalidation rate (i.e., invs/ref)
itlb.accesses             143304378 # total number of accesses
itlb.hits                 143304374 # total number of hits
itlb.misses                       4 # total number of misses
itlb.replacements                 0 # total number of replacements
itlb.writebacks                   0 # total number of writebacks
itlb.invalidations                0 # total number of invalidations
itlb.miss_rate               0.0000 # miss rate (i.e., misses/ref)
itlb.repl_rate               0.0000 # replacement rate (i.e., repls/ref)
itlb.wb_rate                 0.0000 # writeback rate (i.e., wrbks/ref)
itlb.inv_rate                0.0000 # invalidation rate (i.e., invs/ref)
dtlb.accesses              50859347 # total number of accesses
dtlb.hits                  45769238 # total number of hits
dtlb.misses                 5090109 # total number of misses
dtlb.replacements           5089981 # total number of replacements
dtlb.writebacks                   0 # total number of writebacks
dtlb.invalidations                0 # total number of invalidations
dtlb.miss_rate               0.1001 # miss rate (i.e., misses/ref)
dtlb.repl_rate               0.1001 # replacement rate (i.e., repls/ref)
dtlb.wb_rate                 0.0000 # writeback rate (i.e., wrbks/ref)
dtlb.inv_rate                0.0000 # invalidation rate (i.e., invs/ref)
rename_power           1931538488.3921 # total power usage of rename unit
bpred_power            1682150814.6616 # total power usage of bpred unit
window_power           25521433147.3774 # total power usage of instruction window
lsq_power              2300759146.9223 # total power usage of load/store queue
regfile_power          14845804610.9836 # total power usage of arch. regfile
icache_power           1790954365.4256 # total power usage of icache
dcache_power           7605044122.0377 # total power usage of dcache
dcache2_power          1832477787.6538 # total power usage of dcache2
alu_power              19619540991.9078 # total power usage of alu
falu_power             16867478814.4790 # total power usage of falu
resultbus_power        18500968721.0897 # total power usage of resultbus
clock_power            36179209532.7587 # total power usage of clock
avg_rename_power             3.2707 # avg power usage of rename unit
avg_bpred_power              2.8484 # avg power usage of bpred unit
avg_window_power            43.2160 # avg power usage of instruction window
avg_lsq_power                3.8959 # avg power usage of lsq
avg_regfile_power           25.1387 # avg power usage of arch. regfile
avg_icache_power             3.0327 # avg power usage of icache
avg_dcache_power            12.8778 # avg power usage of dcache
avg_dcache2_power            3.1030 # avg power usage of dcache2
avg_alu_power               33.2222 # avg power usage of alu
avg_falu_power              28.5621 # avg power usage of falu
avg_resultbus_power         31.3281 # avg power usage of resultbus
avg_clock_power             61.2631 # avg power usage of clock
fetch_stage_power      3473105180.0872 # total power usage of fetch stage
dispatch_stage_power   1931538488.3921 # total power usage of dispatch stage
issue_stage_power      75380223916.9886 # total power usage of issue stage
avg_fetch_power              5.8811 # average power of fetch unit per cycle
avg_dispatch_power           3.2707 # average power of dispatch unit per cycle
avg_issue_power            127.6431 # average power of issue unit per cycle
total_power            131809881729.2103 # total power per cycle
avg_total_power_cycle      223.1967 # average total power per cycle
avg_total_power_cycle_nofp_nod2     191.5316 # average total power per cycle
avg_total_power_insn      1106.0472 # average total power per insn
avg_total_power_insn_nofp_nod2     949.1316 # average total power per insn
rename_power_cc1       86828013.1341 # total power usage of rename unit_cc1
bpred_power_cc1        46009971.3507 # total power usage of bpred unit_cc1
window_power_cc1       2419081788.1187 # total power usage of instruction window_cc1
lsq_power_cc1          40932535.0092 # total power usage of lsq_cc1
regfile_power_cc1      760965123.6245 # total power usage of arch. regfile_cc1
icache_power_cc1       107946183.8332 # total power usage of icache_cc1
dcache_power_cc1       383469832.5766 # total power usage of dcache_cc1
dcache2_power_cc1      31179651.5893 # total power usage of dcache2_cc1
alu_power_cc1          208826289.3024 # total power usage of alu_cc1
resultbus_power_cc1    1606093682.2401 # total power usage of resultbus_cc1
clock_power_cc1        2182865686.5294 # total power usage of clock_cc1
avg_rename_power_cc1         0.1470 # avg power usage of rename unit_cc1
avg_bpred_power_cc1          0.0779 # avg power usage of bpred unit_cc1
avg_window_power_cc1         4.0963 # avg power usage of instruction window_cc1
avg_lsq_power_cc1            0.0693 # avg power usage of lsq_cc1
avg_regfile_power_cc1        1.2886 # avg power usage of arch. regfile_cc1
avg_icache_power_cc1         0.1828 # avg power usage of icache_cc1
avg_dcache_power_cc1         0.6493 # avg power usage of dcache_cc1
avg_dcache2_power_cc1        0.0528 # avg power usage of dcache2_cc1
avg_alu_power_cc1            0.3536 # avg power usage of alu_cc1
avg_resultbus_power_cc1       2.7196 # avg power usage of resultbus_cc1
avg_clock_power_cc1          3.6963 # avg power usage of clock_cc1
fetch_stage_power_cc1  153956155.1838 # total power usage of fetch stage_cc1
dispatch_stage_power_cc1 86828013.1341 # total power usage of dispatch stage_cc1
issue_stage_power_cc1  4689583778.8362 # total power usage of issue stage_cc1
avg_fetch_power_cc1          0.2607 # average power of fetch unit per cycle_cc1
avg_dispatch_power_cc1       0.1470 # average power of dispatch unit per cycle_cc1
avg_issue_power_cc1          7.9410 # average power of issue unit per cycle_cc1
total_power_cycle_cc1  7874198757.3079 # total power per cycle_cc1
avg_total_power_cycle_cc1      13.3336 # average total power per cycle_cc1
avg_total_power_insn_cc1      66.0742 # average total power per insn_cc1
rename_power_cc2       24361133.5131 # total power usage of rename unit_cc2
bpred_power_cc2        32944056.5437 # total power usage of bpred unit_cc2
window_power_cc2       453821236.5821 # total power usage of instruction window_cc2
lsq_power_cc2          16558462.4151 # total power usage of lsq_cc2
regfile_power_cc2      59208605.5089 # total power usage of arch. regfile_cc2
icache_power_cc2       107946183.8332 # total power usage of icache_cc2
dcache_power_cc2       162418615.0980 # total power usage of dcache_cc2
dcache2_power_cc2      13649340.8681 # total power usage of dcache2_cc2
alu_power_cc2          128216994.3717 # total power usage of alu_cc2
resultbus_power_cc2    233957459.6080 # total power usage of resultbus_cc2
clock_power_cc2        470001969.3400 # total power usage of clock_cc2
avg_rename_power_cc2         0.0413 # avg power usage of rename unit_cc2
avg_bpred_power_cc2          0.0558 # avg power usage of bpred unit_cc2
avg_window_power_cc2         0.7685 # avg power usage of instruction window_cc2
avg_lsq_power_cc2            0.0280 # avg power usage of instruction lsq_cc2
avg_regfile_power_cc2        0.1003 # avg power usage of arch. regfile_cc2
avg_icache_power_cc2         0.1828 # avg power usage of icache_cc2
avg_dcache_power_cc2         0.2750 # avg power usage of dcache_cc2
avg_dcache2_power_cc2        0.0231 # avg power usage of dcache2_cc2
avg_alu_power_cc2            0.2171 # avg power usage of alu_cc2
avg_resultbus_power_cc2       0.3962 # avg power usage of resultbus_cc2
avg_clock_power_cc2          0.7959 # avg power usage of clock_cc2
fetch_stage_power_cc2  140890240.3768 # total power usage of fetch stage_cc2
dispatch_stage_power_cc2 24361133.5131 # total power usage of dispatch stage_cc2
issue_stage_power_cc2  1008622108.9430 # total power usage of issue stage_cc2
avg_fetch_power_cc2          0.2386 # average power of fetch unit per cycle_cc2
avg_dispatch_power_cc2       0.0413 # average power of dispatch unit per cycle_cc2
avg_issue_power_cc2          1.7079 # average power of issue unit per cycle_cc2
total_power_cycle_cc2  1703084057.6818 # total power per cycle_cc2
avg_total_power_cycle_cc2       2.8839 # average total power per cycle_cc2
avg_total_power_insn_cc2      14.2910 # average total power per insn_cc2
rename_power_cc3       208832176.5054 # total power usage of rename unit_cc3
bpred_power_cc3        196976173.0705 # total power usage of bpred unit_cc3
window_power_cc3       2732871773.2417 # total power usage of instruction window_cc3
lsq_power_cc3          241951021.1915 # total power usage of lsq_cc3
regfile_power_cc3      1458439651.2142 # total power usage of arch. regfile_cc3
icache_power_cc3       276246996.2505 # total power usage of icache_cc3
dcache_power_cc3       884635633.5984 # total power usage of dcache_cc3
dcache2_power_cc3      193828107.2107 # total power usage of dcache2_cc3
alu_power_cc3          2069288465.5503 # total power usage of alu_cc3
resultbus_power_cc3    1912737673.9477 # total power usage of resultbus_cc3
clock_power_cc3        3849874566.9822 # total power usage of clock_cc3
avg_rename_power_cc3         0.3536 # avg power usage of rename unit_cc3
avg_bpred_power_cc3          0.3335 # avg power usage of bpred unit_cc3
avg_window_power_cc3         4.6276 # avg power usage of instruction window_cc3
avg_lsq_power_cc3            0.4097 # avg power usage of instruction lsq_cc3
avg_regfile_power_cc3        2.4696 # avg power usage of arch. regfile_cc3
avg_icache_power_cc3         0.4678 # avg power usage of icache_cc3
avg_dcache_power_cc3         1.4980 # avg power usage of dcache_cc3
avg_dcache2_power_cc3        0.3282 # avg power usage of dcache2_cc3
avg_alu_power_cc3            3.5040 # avg power usage of alu_cc3
avg_resultbus_power_cc3       3.2389 # avg power usage of resultbus_cc3
avg_clock_power_cc3          6.5191 # avg power usage of clock_cc3
fetch_stage_power_cc3  473223169.3209 # total power usage of fetch stage_cc3
dispatch_stage_power_cc3 208832176.5054 # total power usage of dispatch stage_cc3
issue_stage_power_cc3  8035312674.7403 # total power usage of issue stage_cc3
avg_fetch_power_cc3          0.8013 # average power of fetch unit per cycle_cc3
avg_dispatch_power_cc3       0.3536 # average power of dispatch unit per cycle_cc3
avg_issue_power_cc3         13.6064 # average power of issue unit per cycle_cc3
total_power_cycle_cc3  14025682238.7631 # total power per cycle_cc3
avg_total_power_cycle_cc3      23.7500 # average total power per cycle_cc3
avg_total_power_insn_cc3     117.6927 # average total power per insn_cc3
total_rename_access       119172021 # total number accesses of rename unit
total_bpred_access         23131422 # total number accesses of bpred unit
total_window_access       439053446 # total number accesses of instruction window
total_lsq_access           51430075 # total number accesses of load/store queue
total_regfile_access      127494437 # total number accesses of arch. regfile
total_icache_access       143540758 # total number accesses of icache
total_dcache_access        50449196 # total number accesses of dcache
total_dcache2_access       17595157 # total number accesses of dcache2
total_alu_access          110054425 # total number accesses of alu
total_resultbus_access    127453370 # total number accesses of resultbus
avg_rename_access            0.2018 # avg number accesses of rename unit
avg_bpred_access             0.0392 # avg number accesses of bpred unit
avg_window_access            0.7435 # avg number accesses of instruction window
avg_lsq_access               0.0871 # avg number accesses of lsq
avg_regfile_access           0.2159 # avg number accesses of arch. regfile
avg_icache_access            0.2431 # avg number accesses of icache
avg_dcache_access            0.0854 # avg number accesses of dcache
avg_dcache2_access           0.0298 # avg number accesses of dcache2
avg_alu_access               0.1864 # avg number accesses of alu
avg_resultbus_access         0.2158 # avg number accesses of resultbus
max_rename_access                16 # max number accesses of rename unit
max_bpred_access                  7 # max number accesses of bpred unit
max_window_access                34 # max number accesses of instruction window
max_lsq_access                    7 # max number accesses of load/store queue
max_regfile_access               34 # max number accesses of arch. regfile
max_icache_access                16 # max number accesses of icache
max_dcache_access                 7 # max number accesses of dcache
max_dcache2_access                8 # max number accesses of dcache2
max_alu_access                    5 # max number accesses of alu
max_resultbus_access              9 # max number accesses of resultbus
max_cycle_power_cc1        133.3625 # maximum cycle power usage of cc1
max_cycle_power_cc2         79.2141 # maximum cycle power usage of cc2
max_cycle_power_cc3         88.0646 # maximum cycle power usage of cc3
sim_invalid_addrs                 0 # total non-speculative bogus addresses seen (debug var)
ld_text_base           0x0120000000 # program text (code) segment base
ld_text_size                 163840 # program text (code) size in bytes
ld_data_base           0x0140000000 # program initialized data segment base
ld_data_size                  80448 # program init'ed `.data' and uninit'ed `.bss' size in bytes
ld_stack_base          0x011ff9b000 # program stack segment base (highest address in stack)
ld_stack_size                 16384 # program initial stack size
ld_prog_entry          0x0120007edc # program entry point (initial PC)
ld_environ_base        0x011ff96f00 # program environment base address address
ld_target_big_endian              0 # target executable endian-ness, non-zero if big endian
mem.page_count                24329 # total number of pages allocated
mem.page_mem                194632k # total size of memory pages allocated
mem.ptab_misses             7073595 # total first level page table misses
mem.ptab_accesses        1442027234 # total page table accesses
mem.ptab_miss_rate           0.0049 # first level page table miss rate

