sim-outorder: SimpleScalar/Alpha Tool Set version 3.0 of August, 2003.
Copyright (c) 1994-2003 by Todd M. Austin, Ph.D. and SimpleScalar, LLC.
All Rights Reserved. This version of SimpleScalar is licensed for academic
non-commercial use.  No portion of this work may be used by any commercial
entity, or for any commercial purpose, without the prior written permission
of SimpleScalar, LLC (info@simplescalar.com).


Processor Parameters:
Issue Width: 16
Window Size: 64
Number of Virtual Registers: 32
Number of Physical Registers: 64
Datapath Width: 64
Total Power Consumption: 225.197
Branch Predictor Power Consumption: 2.84842  (1.28%)
 branch target buffer power (W): 2.49493
 local predict power (W): 0.0867068
 global predict power (W): 0.0996078
 chooser power (W): 0.0702439
 RAS power (W): 0.0969383
Rename Logic Power Consumption: 3.27072  (1.47%)
 Instruction Decode Power (W): 0.0639661
 RAT decode_power (W): 0.454058
 RAT wordline_power (W): 0.227603
 RAT bitline_power (W): 2.30694
 DCL Comparators (W): 0.218151
Instruction Window Power Consumption: 43.216  (19.4%)
 tagdrive (W): 2.9395
 tagmatch (W): 0.989695
 Selection Logic (W): 0.225484
 decode_power (W): 0.976583
 wordline_power (W): 1.0557
 bitline_power (W): 37.0291
Load/Store Queue Power Consumption: 3.89593  (1.75%)
 tagdrive (W): 0.980932
 tagmatch (W): 0.214942
 decode_power (W): 0.0159915
 wordline_power (W): 0.0433172
 bitline_power (W): 2.64075
Arch. Register File Power Consumption: 25.1387  (11.3%)
 decode_power (W): 0.454058
 wordline_power (W): 1.0557
 bitline_power (W): 23.629
Result Bus Power Consumption: 31.3281  (14%)
Total Clock Power: 61.2631  (27.4%)
Int ALU Power: 4.66013  (2.09%)
FP ALU Power: 28.5621  (12.8%)
Instruction Cache Power Consumption: 2.76773  (1.24%)
 decode_power (W): 0.151353
 wordline_power (W): 0.180479
 bitline_power (W): 1.42251
 senseamp_power (W): 0.768
 tagarray_power (W): 0.245382
Itlb_power (W): 0.264936 (0.119%)
Data Cache Power Consumption: 11.0709  (4.96%)
 decode_power (W): 0.60541
 wordline_power (W): 0.721917
 bitline_power (W): 5.69006
 senseamp_power (W): 3.072
 tagarray_power (W): 0.981529
Dtlb_power (W): 1.80688 (0.81%)
Level 2 Cache Power Consumption: 3.10298 (1.39%)
 decode_power (W): 0.19487
 wordline_power (W): 0.0430878
 bitline_power (W): 1.77274
 senseamp_power (W): 0.192
 tagarray_power (W): 0.900275
sim: loading EIO file: ../benchmarks/183.equake.spec_ref.eio.gz
sim: command line: ./sim-outorder -config ../configs/current.config ../benchmarks/183.equake.spec_ref.eio.gz 

sim: simulation started @ Tue Nov 24 11:32:06 2015, options follow:

sim-outorder: This simulator implements a very detailed out-of-order issue
superscalar processor with a two-level memory system and speculative
execution support.  This simulator is a performance simulator, tracking the
latency of all pipeline operations.

# -config                     # load configuration from a file
# -dumpconfig                 # dump configuration to a file
# -h                    false # print help message    
# -v                    false # verbose operation     
# -d                    false # enable debug message  
# -i                    false # start in Dlite debugger
-seed                       1 # random number generator seed (0 for timer seed)
# -q                    false # initialize and terminate immediately
# -chkpt               <null> # restore EIO trace execution from <fname>
# -redir:sim     ../results/21_20_matt/183.equake.spec_ref.eio.gz.out # redirect simulator output to file (non-interactive only)
# -redir:prog       /dev/null # redirect simulated program output to file
-nice                       0 # simulator scheduling priority
-freq            600000000.0000 # frequency             
-max:inst           100000000 # maximum number of inst's to execute
-fastfwd                    0 # number of insts skipped before timing starts
# -ptrace              <null> # generate pipetrace, i.e., <fname|stdout|stderr> <range>
-fetch:ifqsize             16 # instruction fetch queue size (in insts)
-fetch:mplat               15 # extra branch mis-prediction latency
-fetch:speed                1 # speed of front-end of machine relative to execution core
-bpred                   2lev # branch predictor type {nottaken|taken|perfect|bimod|2lev|comb}
-bpred:bimod     2048 # bimodal predictor config (<table size>)
-bpred:2lev      1 1024 4 0 # 2-level predictor config (<l1size> <l2size> <hist_size> <xor>)
-bpred:comb      1024 # combining predictor config (<meta_table_size>)
-bpred:ras                  8 # return address stack size (0 for no return stack)
-bpred:btb       512 4 # BTB config (<num_sets> <associativity>)
# -bpred:spec_update       <null> # speculative predictors update in {ID|WB} (default non-spec)
-decode:width              16 # instruction decode B/W (insts/cycle)
-issue:width               16 # instruction issue B/W (insts/cycle)
-issue:inorder          false # run pipeline with in-order issue
-issue:wrongpath         true # issue instructions down wrong execution paths
-commit:width              16 # instruction commit B/W (insts/cycle)
-ruu:size                  64 # register update unit (RUU) size
-lsq:size                   8 # load/store queue (LSQ) size
-cache:dl1       dl1:32:64:8:f # l1 data cache config, i.e., {<config>|none}
-cache:dl1lat               1 # l1 data cache hit latency (in cycles)
-cache:dl2       dl2:256:64:8:f # l2 data cache config, i.e., {<config>|none}
-cache:dl2lat               2 # l2 data cache hit latency (in cycles)
-cache:il1       il1:32:64:8:f # l1 inst cache config, i.e., {<config>|dl1|dl2|none}
-cache:il1lat               1 # l1 instruction cache hit latency (in cycles)
-cache:il2                dl2 # l2 instruction cache config, i.e., {<config>|dl2|none}
-cache:il2lat               2 # l2 instruction cache hit latency (in cycles)
-cache:flush            false # flush caches on system calls
-cache:icompress        false # convert 64-bit inst addresses to 32-bit inst equivalents
-mem:lat         103 1 # memory access latency (<first_chunk> <inter_chunk>)
-mem:width                  8 # memory access bus width (in bytes)
-tlb:itlb        itlb:16:4096:4:l # instruction TLB config, i.e., {<config>|none}
-tlb:dtlb        dtlb:32:4096:4:l # data TLB config, i.e., {<config>|none}
-tlb:lat                   30 # inst/data TLB miss latency (in cycles)
-res:ialu                   4 # total number of integer ALU's available
-res:imult                  2 # total number of integer multiplier/dividers available
-res:memport                4 # total number of memory system ports available (to CPU)
-res:fpalu                  8 # total number of floating point ALU's available
-res:fpmult                 2 # total number of floating point multiplier/dividers available
# -pcstat              <null> # profile stat(s) against text addr's (mult uses ok)
-bugcompat              false # operate in backward-compatible bugs mode (for testing only)

  Pipetrace range arguments are formatted as follows:

    {{@|#}<start>}:{{@|#|+}<end>}

  Both ends of the range are optional, if neither are specified, the entire
  execution is traced.  Ranges that start with a `@' designate an address
  range to be traced, those that start with an `#' designate a cycle count
  range.  All other range values represent an instruction count range.  The
  second argument, if specified with a `+', indicates a value relative
  to the first argument, e.g., 1000:+100 == 1000:1100.  Program symbols may
  be used in all contexts.

    Examples:   -ptrace FOO.trc #0:#1000
                -ptrace BAR.trc @2000:
                -ptrace BLAH.trc :1500
                -ptrace UXXE.trc :
                -ptrace FOOBAR.trc @main:+278

  Branch predictor configuration examples for 2-level predictor:
    Configurations:   N, M, W, X
      N   # entries in first level (# of shift register(s))
      W   width of shift register(s)
      M   # entries in 2nd level (# of counters, or other FSM)
      X   (yes-1/no-0) xor history and address for 2nd level index
    Sample predictors:
      GAg     : 1, W, 2^W, 0
      GAp     : 1, W, M (M > 2^W), 0
      PAg     : N, W, 2^W, 0
      PAp     : N, W, M (M == 2^(N+W)), 0
      gshare  : 1, W, 2^W, 1
  Predictor `comb' combines a bimodal and a 2-level predictor.

  The cache config parameter <config> has the following format:

    <name>:<nsets>:<bsize>:<assoc>:<repl>

    <name>   - name of the cache being defined
    <nsets>  - number of sets in the cache
    <bsize>  - block size of the cache
    <assoc>  - associativity of the cache
    <repl>   - block replacement strategy, 'l'-LRU, 'f'-FIFO, 'r'-random

    Examples:   -cache:dl1 dl1:4096:32:1:l
                -dtlb dtlb:128:4096:32:r

  Cache levels can be unified by pointing a level of the instruction cache
  hierarchy at the data cache hiearchy using the "dl1" and "dl2" cache
  configuration arguments.  Most sensible combinations are supported, e.g.,

    A unified l2 cache (il2 is pointed at dl2):
      -cache:il1 il1:128:64:1:l -cache:il2 dl2
      -cache:dl1 dl1:256:32:1:l -cache:dl2 ul2:1024:64:2:l

    Or, a fully unified cache hierarchy (il1 pointed at dl1):
      -cache:il1 dl1
      -cache:dl1 ul1:256:32:1:l -cache:dl2 ul2:1024:64:2:l



sim: ** starting performance simulation **

sim: ** simulation statistics **
sim_num_insn              100000004 # total number of instructions committed
sim_num_refs               45231620 # total number of loads and stores committed
sim_num_loads              40733803 # total number of loads committed
sim_num_stores         4497817.0000 # total number of stores committed
sim_num_branches            3673861 # total number of branches committed
sim_elapsed_time                192 # total simulation time in seconds
sim_inst_rate           520833.3542 # simulation speed (in insts/sec)
sim_total_insn            102123587 # total number of instructions executed
sim_total_refs             46436449 # total number of loads and stores executed
sim_total_loads            41868772 # total number of loads executed
sim_total_stores       4567677.0000 # total number of stores executed
sim_total_branches          3673878 # total number of branches executed
sim_cycle                 271483688 # total simulation time in cycles
sim_IPC                      0.3683 # instructions per cycle
sim_CPI                      2.7148 # cycles per instruction
sim_exec_BW                  0.3762 # total instructions (mis-spec + committed) per cycle
sim_IPB                     27.2193 # instruction per branch
IFQ_count                4280898542 # cumulative IFQ occupancy
IFQ_fcount                265408935 # cumulative IFQ full count
ifq_occupancy               15.7685 # avg IFQ occupancy (insn's)
ifq_rate                     0.3762 # avg IFQ dispatch rate (insn/cycle)
ifq_latency                 41.9188 # avg IFQ occupant latency (cycle's)
ifq_full                     0.9776 # fraction of time (cycle's) IFQ was full
RUU_count                3915665025 # cumulative RUU occupancy
RUU_fcount                        0 # cumulative RUU full count
ruu_occupancy               14.4232 # avg RUU occupancy (insn's)
ruu_rate                     0.3762 # avg RUU dispatch rate (insn/cycle)
ruu_latency                 38.3424 # avg RUU occupant latency (cycle's)
ruu_full                     0.0000 # fraction of time (cycle's) RUU was full
LSQ_count                2144914564 # cumulative LSQ occupancy
LSQ_fcount                266504165 # cumulative LSQ full count
lsq_occupancy                7.9007 # avg LSQ occupancy (insn's)
lsq_rate                     0.3762 # avg LSQ dispatch rate (insn/cycle)
lsq_latency                 21.0031 # avg LSQ occupant latency (cycle's)
lsq_full                     0.9817 # fraction of time (cycle's) LSQ was full
sim_slip                 6198811356 # total number of slip cycles
avg_sim_slip                61.9881 # the average slip between issue and retirement
bpred_2lev.lookups          3697216 # total number of bpred lookups
bpred_2lev.updates          3673861 # total number of updates
bpred_2lev.addr_hits        3466740 # total number of address-predicted hits
bpred_2lev.dir_hits         3466749 # total number of direction-predicted hits (includes addr-hits)
bpred_2lev.misses            207112 # total number of misses
bpred_2lev.jr_hits           814565 # total number of address-predicted hits for JR's
bpred_2lev.jr_seen           814566 # total number of JR's seen
bpred_2lev.jr_non_ras_hits.PP            0 # total number of address-predicted hits for non-RAS JR's
bpred_2lev.jr_non_ras_seen.PP            0 # total number of non-RAS JR's seen
bpred_2lev.bpred_addr_rate    0.9436 # branch address-prediction rate (i.e., addr-hits/updates)
bpred_2lev.bpred_dir_rate    0.9436 # branch direction-prediction rate (i.e., all-hits/updates)
bpred_2lev.bpred_jr_rate    1.0000 # JR address-prediction rate (i.e., JR addr-hits/JRs seen)
bpred_2lev.bpred_jr_non_ras_rate.PP <error: divide by zero> # non-RAS JR addr-pred rate (ie, non-RAS JR hits/JRs seen)
bpred_2lev.retstack_pushes       814569 # total number of address pushed onto ret-addr stack
bpred_2lev.retstack_pops       814588 # total number of address popped off of ret-addr stack
bpred_2lev.used_ras.PP       814566 # total number of RAS predictions used
bpred_2lev.ras_hits.PP       814565 # total number of RAS hits
bpred_2lev.ras_rate.PP    1.0000 # RAS prediction rate (i.e., RAS hits/used RAS)
il1.accesses              105436754 # total number of accesses
il1.hits                  105436601 # total number of hits
il1.misses                      153 # total number of misses
il1.replacements                  0 # total number of replacements
il1.writebacks                    0 # total number of writebacks
il1.invalidations                 0 # total number of invalidations
il1.miss_rate                0.0000 # miss rate (i.e., misses/ref)
il1.repl_rate                0.0000 # replacement rate (i.e., repls/ref)
il1.wb_rate                  0.0000 # writeback rate (i.e., wrbks/ref)
il1.inv_rate                 0.0000 # invalidation rate (i.e., invs/ref)
dl1.accesses               44507813 # total number of accesses
dl1.hits                   40857947 # total number of hits
dl1.misses                  3649866 # total number of misses
dl1.replacements            3649610 # total number of replacements
dl1.writebacks               426003 # total number of writebacks
dl1.invalidations                 0 # total number of invalidations
dl1.miss_rate                0.0820 # miss rate (i.e., misses/ref)
dl1.repl_rate                0.0820 # replacement rate (i.e., repls/ref)
dl1.wb_rate                  0.0096 # writeback rate (i.e., wrbks/ref)
dl1.inv_rate                 0.0000 # invalidation rate (i.e., invs/ref)
dl2.accesses                4076022 # total number of accesses
dl2.hits                    1248448 # total number of hits
dl2.misses                  2827574 # total number of misses
dl2.replacements            2825526 # total number of replacements
dl2.writebacks               331249 # total number of writebacks
dl2.invalidations                 0 # total number of invalidations
dl2.miss_rate                0.6937 # miss rate (i.e., misses/ref)
dl2.repl_rate                0.6932 # replacement rate (i.e., repls/ref)
dl2.wb_rate                  0.0813 # writeback rate (i.e., wrbks/ref)
dl2.inv_rate                 0.0000 # invalidation rate (i.e., invs/ref)
itlb.accesses             105436754 # total number of accesses
itlb.hits                 105436748 # total number of hits
itlb.misses                       6 # total number of misses
itlb.replacements                 0 # total number of replacements
itlb.writebacks                   0 # total number of writebacks
itlb.invalidations                0 # total number of invalidations
itlb.miss_rate               0.0000 # miss rate (i.e., misses/ref)
itlb.repl_rate               0.0000 # replacement rate (i.e., repls/ref)
itlb.wb_rate                 0.0000 # writeback rate (i.e., wrbks/ref)
itlb.inv_rate                0.0000 # invalidation rate (i.e., invs/ref)
dtlb.accesses              45322185 # total number of accesses
dtlb.hits                  45275179 # total number of hits
dtlb.misses                   47006 # total number of misses
dtlb.replacements             46878 # total number of replacements
dtlb.writebacks                   0 # total number of writebacks
dtlb.invalidations                0 # total number of invalidations
dtlb.miss_rate               0.0010 # miss rate (i.e., misses/ref)
dtlb.repl_rate               0.0010 # replacement rate (i.e., repls/ref)
dtlb.wb_rate                 0.0000 # writeback rate (i.e., wrbks/ref)
dtlb.inv_rate                0.0000 # invalidation rate (i.e., invs/ref)
rename_power           887946731.3820 # total power usage of rename unit
bpred_power            773300835.1968 # total power usage of bpred unit
window_power           11732447095.1650 # total power usage of instruction window
lsq_power              1057681011.7572 # total power usage of load/store queue
regfile_power          6824758531.5285 # total power usage of arch. regfile
icache_power           823318856.6164 # total power usage of icache
dcache_power           3496111595.9012 # total power usage of dcache
dcache2_power          842407582.6337 # total power usage of dcache2
alu_power              9019290908.1237 # total power usage of alu
falu_power             7754141508.2021 # total power usage of falu
resultbus_power        8505072532.9261 # total power usage of resultbus
clock_power            16631929002.5996 # total power usage of clock
avg_rename_power             3.2707 # avg power usage of rename unit
avg_bpred_power              2.8484 # avg power usage of bpred unit
avg_window_power            43.2160 # avg power usage of instruction window
avg_lsq_power                3.8959 # avg power usage of lsq
avg_regfile_power           25.1387 # avg power usage of arch. regfile
avg_icache_power             3.0327 # avg power usage of icache
avg_dcache_power            12.8778 # avg power usage of dcache
avg_dcache2_power            3.1030 # avg power usage of dcache2
avg_alu_power               33.2222 # avg power usage of alu
avg_falu_power              28.5621 # avg power usage of falu
avg_resultbus_power         31.3281 # avg power usage of resultbus
avg_clock_power             61.2631 # avg power usage of clock
fetch_stage_power      1596619691.8132 # total power usage of fetch stage
dispatch_stage_power   887946731.3820 # total power usage of dispatch stage
issue_stage_power      34653010726.5069 # total power usage of issue stage
avg_fetch_power              5.8811 # average power of fetch unit per cycle
avg_dispatch_power           3.2707 # average power of dispatch unit per cycle
avg_issue_power            127.6431 # average power of issue unit per cycle
total_power            60594264683.8301 # total power per cycle
avg_total_power_cycle      223.1967 # average total power per cycle
avg_total_power_cycle_nofp_nod2     191.5316 # average total power per cycle
avg_total_power_insn       593.3425 # average total power per insn
avg_total_power_insn_nofp_nod2     509.1646 # average total power per insn
rename_power_cc1       51434897.5511 # total power usage of rename unit_cc1
bpred_power_cc1        7624458.0706 # total power usage of bpred unit_cc1
window_power_cc1       2118238185.2234 # total power usage of instruction window_cc1
lsq_power_cc1          36514583.3622 # total power usage of lsq_cc1
regfile_power_cc1      579885766.6245 # total power usage of arch. regfile_cc1
icache_power_cc1       54285547.2880 # total power usage of icache_cc1
dcache_power_cc1       317087452.8764 # total power usage of dcache_cc1
dcache2_power_cc1      9474694.4386 # total power usage of dcache2_cc1
alu_power_cc1          773510304.1009 # total power usage of alu_cc1
resultbus_power_cc1    1383550258.5552 # total power usage of resultbus_cc1
clock_power_cc1        1971269676.3845 # total power usage of clock_cc1
avg_rename_power_cc1         0.1895 # avg power usage of rename unit_cc1
avg_bpred_power_cc1          0.0281 # avg power usage of bpred unit_cc1
avg_window_power_cc1         7.8025 # avg power usage of instruction window_cc1
avg_lsq_power_cc1            0.1345 # avg power usage of lsq_cc1
avg_regfile_power_cc1        2.1360 # avg power usage of arch. regfile_cc1
avg_icache_power_cc1         0.2000 # avg power usage of icache_cc1
avg_dcache_power_cc1         1.1680 # avg power usage of dcache_cc1
avg_dcache2_power_cc1        0.0349 # avg power usage of dcache2_cc1
avg_alu_power_cc1            2.8492 # avg power usage of alu_cc1
avg_resultbus_power_cc1       5.0963 # avg power usage of resultbus_cc1
avg_clock_power_cc1          7.2611 # avg power usage of clock_cc1
fetch_stage_power_cc1  61910005.3586 # total power usage of fetch stage_cc1
dispatch_stage_power_cc1 51434897.5511 # total power usage of dispatch stage_cc1
issue_stage_power_cc1  4638375478.5567 # total power usage of issue stage_cc1
avg_fetch_power_cc1          0.2280 # average power of fetch unit per cycle_cc1
avg_dispatch_power_cc1       0.1895 # average power of dispatch unit per cycle_cc1
avg_issue_power_cc1         17.0853 # average power of issue unit per cycle_cc1
total_power_cycle_cc1  7302875824.4754 # total power per cycle_cc1
avg_total_power_cycle_cc1      26.8999 # average total power per cycle_cc1
avg_total_power_insn_cc1      71.5102 # average total power per insn_cc1
rename_power_cc2       20876094.2131 # total power usage of rename unit_cc2
bpred_power_cc2        5232358.1535 # total power usage of bpred unit_cc2
window_power_cc2       452003862.5452 # total power usage of instruction window_cc2
lsq_power_cc2          15363300.6989 # total power usage of lsq_cc2
regfile_power_cc2      84060306.1194 # total power usage of arch. regfile_cc2
icache_power_cc2       54285547.2880 # total power usage of icache_cc2
dcache_power_cc2       143290635.3324 # total power usage of dcache_cc2
dcache2_power_cc2      3161950.3973 # total power usage of dcache2_cc2
alu_power_cc2          200651498.7457 # total power usage of alu_cc2
resultbus_power_cc2    252850802.7267 # total power usage of resultbus_cc2
clock_power_cc2        455408196.8526 # total power usage of clock_cc2
avg_rename_power_cc2         0.0769 # avg power usage of rename unit_cc2
avg_bpred_power_cc2          0.0193 # avg power usage of bpred unit_cc2
avg_window_power_cc2         1.6649 # avg power usage of instruction window_cc2
avg_lsq_power_cc2            0.0566 # avg power usage of instruction lsq_cc2
avg_regfile_power_cc2        0.3096 # avg power usage of arch. regfile_cc2
avg_icache_power_cc2         0.2000 # avg power usage of icache_cc2
avg_dcache_power_cc2         0.5278 # avg power usage of dcache_cc2
avg_dcache2_power_cc2        0.0116 # avg power usage of dcache2_cc2
avg_alu_power_cc2            0.7391 # avg power usage of alu_cc2
avg_resultbus_power_cc2       0.9314 # avg power usage of resultbus_cc2
avg_clock_power_cc2          1.6775 # avg power usage of clock_cc2
fetch_stage_power_cc2  59517905.4414 # total power usage of fetch stage_cc2
dispatch_stage_power_cc2 20876094.2131 # total power usage of dispatch stage_cc2
issue_stage_power_cc2  1067322050.4462 # total power usage of issue stage_cc2
avg_fetch_power_cc2          0.2192 # average power of fetch unit per cycle_cc2
avg_dispatch_power_cc2       0.0769 # average power of dispatch unit per cycle_cc2
avg_issue_power_cc2          3.9314 # average power of issue unit per cycle_cc2
total_power_cycle_cc2  1687184553.0727 # total power per cycle_cc2
avg_total_power_cycle_cc2       6.2147 # average total power per cycle_cc2
avg_total_power_insn_cc2      16.5210 # average total power per insn_cc2
rename_power_cc3       104527276.6385 # total power usage of rename unit_cc3
bpred_power_cc3        81852077.2705 # total power usage of bpred unit_cc3
window_power_cc3       1393290889.1341 # total power usage of instruction window_cc3
lsq_power_cc3          117334245.1188 # total power usage of lsq_cc3
regfile_power_cc3      702610722.3466 # total power usage of arch. regfile_cc3
icache_power_cc3       131188878.8941 # total power usage of icache_cc3
dcache_power_cc3       461221876.8878 # total power usage of dcache_cc3
dcache2_power_cc3      86455365.7197 # total power usage of dcache2_cc3
alu_power_cc3          1025229556.2286 # total power usage of alu_cc3
resultbus_power_cc3    955779363.5316 # total power usage of resultbus_cc3
clock_power_cc3        1908572002.9607 # total power usage of clock_cc3
avg_rename_power_cc3         0.3850 # avg power usage of rename unit_cc3
avg_bpred_power_cc3          0.3015 # avg power usage of bpred unit_cc3
avg_window_power_cc3         5.1321 # avg power usage of instruction window_cc3
avg_lsq_power_cc3            0.4322 # avg power usage of instruction lsq_cc3
avg_regfile_power_cc3        2.5880 # avg power usage of arch. regfile_cc3
avg_icache_power_cc3         0.4832 # avg power usage of icache_cc3
avg_dcache_power_cc3         1.6989 # avg power usage of dcache_cc3
avg_dcache2_power_cc3        0.3185 # avg power usage of dcache2_cc3
avg_alu_power_cc3            3.7764 # avg power usage of alu_cc3
avg_resultbus_power_cc3       3.5206 # avg power usage of resultbus_cc3
avg_clock_power_cc3          7.0302 # avg power usage of clock_cc3
fetch_stage_power_cc3  213040956.1646 # total power usage of fetch stage_cc3
dispatch_stage_power_cc3 104527276.6385 # total power usage of dispatch stage_cc3
issue_stage_power_cc3  4039311296.6206 # total power usage of issue stage_cc3
avg_fetch_power_cc3          0.7847 # average power of fetch unit per cycle_cc3
avg_dispatch_power_cc3       0.3850 # average power of dispatch unit per cycle_cc3
avg_issue_power_cc3         14.8787 # average power of issue unit per cycle_cc3
total_power_cycle_cc3  6968062254.7309 # total power per cycle_cc3
avg_total_power_cycle_cc3      25.6666 # average total power per cycle_cc3
avg_total_power_insn_cc3      68.2317 # average total power per insn_cc3
total_rename_access       102123587 # total number accesses of rename unit
total_bpred_access          3673861 # total number accesses of bpred unit
total_window_access       426693826 # total number accesses of instruction window
total_lsq_access           46136557 # total number accesses of load/store queue
total_regfile_access      180217279 # total number accesses of arch. regfile
total_icache_access       105436959 # total number accesses of icache
total_dcache_access        44507813 # total number accesses of dcache
total_dcache2_access        4076022 # total number accesses of dcache2
total_alu_access          100776461 # total number accesses of alu
total_resultbus_access    137745926 # total number accesses of resultbus
avg_rename_access            0.3762 # avg number accesses of rename unit
avg_bpred_access             0.0135 # avg number accesses of bpred unit
avg_window_access            1.5717 # avg number accesses of instruction window
avg_lsq_access               0.1699 # avg number accesses of lsq
avg_regfile_access           0.6638 # avg number accesses of arch. regfile
avg_icache_access            0.3884 # avg number accesses of icache
avg_dcache_access            0.1639 # avg number accesses of dcache
avg_dcache2_access           0.0150 # avg number accesses of dcache2
avg_alu_access               0.3712 # avg number accesses of alu
avg_resultbus_access         0.5074 # avg number accesses of resultbus
max_rename_access                16 # max number accesses of rename unit
max_bpred_access                  4 # max number accesses of bpred unit
max_window_access                33 # max number accesses of instruction window
max_lsq_access                    6 # max number accesses of load/store queue
max_regfile_access               28 # max number accesses of arch. regfile
max_icache_access                16 # max number accesses of icache
max_dcache_access                 5 # max number accesses of dcache
max_dcache2_access                6 # max number accesses of dcache2
max_alu_access                    9 # max number accesses of alu
max_resultbus_access              9 # max number accesses of resultbus
max_cycle_power_cc1        157.0160 # maximum cycle power usage of cc1
max_cycle_power_cc2         63.8230 # maximum cycle power usage of cc2
max_cycle_power_cc3         72.2595 # maximum cycle power usage of cc3
sim_invalid_addrs                 0 # total non-speculative bogus addresses seen (debug var)
ld_text_base           0x0120000000 # program text (code) segment base
ld_text_size                 253952 # program text (code) size in bytes
ld_data_base           0x0140000000 # program initialized data segment base
ld_data_size                  76704 # program init'ed `.data' and uninit'ed `.bss' size in bytes
ld_stack_base          0x011ff9b000 # program stack segment base (highest address in stack)
ld_stack_size                 16384 # program initial stack size
ld_prog_entry          0x0120013bd4 # program entry point (initial PC)
ld_environ_base        0x011ff967e0 # program environment base address address
ld_target_big_endian              0 # target executable endian-ness, non-zero if big endian
mem.page_count                 6268 # total number of pages allocated
mem.page_mem                 50144k # total size of memory pages allocated
mem.ptab_misses                6275 # total first level page table misses
mem.ptab_accesses        1022890358 # total page table accesses
mem.ptab_miss_rate           0.0000 # first level page table miss rate

