sim-outorder: SimpleScalar/Alpha Tool Set version 3.0 of August, 2003.
Copyright (c) 1994-2003 by Todd M. Austin, Ph.D. and SimpleScalar, LLC.
All Rights Reserved. This version of SimpleScalar is licensed for academic
non-commercial use.  No portion of this work may be used by any commercial
entity, or for any commercial purpose, without the prior written permission
of SimpleScalar, LLC (info@simplescalar.com).


Processor Parameters:
Issue Width: 16
Window Size: 64
Number of Virtual Registers: 32
Number of Physical Registers: 64
Datapath Width: 64
Total Power Consumption: 225.197
Branch Predictor Power Consumption: 2.84842  (1.28%)
 branch target buffer power (W): 2.49493
 local predict power (W): 0.0867068
 global predict power (W): 0.0996078
 chooser power (W): 0.0702439
 RAS power (W): 0.0969383
Rename Logic Power Consumption: 3.27072  (1.47%)
 Instruction Decode Power (W): 0.0639661
 RAT decode_power (W): 0.454058
 RAT wordline_power (W): 0.227603
 RAT bitline_power (W): 2.30694
 DCL Comparators (W): 0.218151
Instruction Window Power Consumption: 43.216  (19.4%)
 tagdrive (W): 2.9395
 tagmatch (W): 0.989695
 Selection Logic (W): 0.225484
 decode_power (W): 0.976583
 wordline_power (W): 1.0557
 bitline_power (W): 37.0291
Load/Store Queue Power Consumption: 3.89593  (1.75%)
 tagdrive (W): 0.980932
 tagmatch (W): 0.214942
 decode_power (W): 0.0159915
 wordline_power (W): 0.0433172
 bitline_power (W): 2.64075
Arch. Register File Power Consumption: 25.1387  (11.3%)
 decode_power (W): 0.454058
 wordline_power (W): 1.0557
 bitline_power (W): 23.629
Result Bus Power Consumption: 31.3281  (14%)
Total Clock Power: 61.2631  (27.4%)
Int ALU Power: 4.66013  (2.09%)
FP ALU Power: 28.5621  (12.8%)
Instruction Cache Power Consumption: 2.76773  (1.24%)
 decode_power (W): 0.151353
 wordline_power (W): 0.180479
 bitline_power (W): 1.42251
 senseamp_power (W): 0.768
 tagarray_power (W): 0.245382
Itlb_power (W): 0.264936 (0.119%)
Data Cache Power Consumption: 11.0709  (4.96%)
 decode_power (W): 0.60541
 wordline_power (W): 0.721917
 bitline_power (W): 5.69006
 senseamp_power (W): 3.072
 tagarray_power (W): 0.981529
Dtlb_power (W): 1.80688 (0.81%)
Level 2 Cache Power Consumption: 3.10298 (1.39%)
 decode_power (W): 0.19487
 wordline_power (W): 0.0430878
 bitline_power (W): 1.77274
 senseamp_power (W): 0.192
 tagarray_power (W): 0.900275
sim: loading EIO file: ../benchmarks/255.vortex.two-ref.eio.gz
sim: command line: ./sim-outorder -config ../configs/current.config ../benchmarks/255.vortex.two-ref.eio.gz 

sim: simulation started @ Tue Nov 24 11:32:07 2015, options follow:

sim-outorder: This simulator implements a very detailed out-of-order issue
superscalar processor with a two-level memory system and speculative
execution support.  This simulator is a performance simulator, tracking the
latency of all pipeline operations.

# -config                     # load configuration from a file
# -dumpconfig                 # dump configuration to a file
# -h                    false # print help message    
# -v                    false # verbose operation     
# -d                    false # enable debug message  
# -i                    false # start in Dlite debugger
-seed                       1 # random number generator seed (0 for timer seed)
# -q                    false # initialize and terminate immediately
# -chkpt               <null> # restore EIO trace execution from <fname>
# -redir:sim     ../results/21_20_matt/255.vortex.two-ref.eio.gz.out # redirect simulator output to file (non-interactive only)
# -redir:prog       /dev/null # redirect simulated program output to file
-nice                       0 # simulator scheduling priority
-freq            600000000.0000 # frequency             
-max:inst           100000000 # maximum number of inst's to execute
-fastfwd                    0 # number of insts skipped before timing starts
# -ptrace              <null> # generate pipetrace, i.e., <fname|stdout|stderr> <range>
-fetch:ifqsize             16 # instruction fetch queue size (in insts)
-fetch:mplat               15 # extra branch mis-prediction latency
-fetch:speed                1 # speed of front-end of machine relative to execution core
-bpred                   2lev # branch predictor type {nottaken|taken|perfect|bimod|2lev|comb}
-bpred:bimod     2048 # bimodal predictor config (<table size>)
-bpred:2lev      1 1024 4 0 # 2-level predictor config (<l1size> <l2size> <hist_size> <xor>)
-bpred:comb      1024 # combining predictor config (<meta_table_size>)
-bpred:ras                  8 # return address stack size (0 for no return stack)
-bpred:btb       512 4 # BTB config (<num_sets> <associativity>)
# -bpred:spec_update       <null> # speculative predictors update in {ID|WB} (default non-spec)
-decode:width              16 # instruction decode B/W (insts/cycle)
-issue:width               16 # instruction issue B/W (insts/cycle)
-issue:inorder          false # run pipeline with in-order issue
-issue:wrongpath         true # issue instructions down wrong execution paths
-commit:width              16 # instruction commit B/W (insts/cycle)
-ruu:size                  64 # register update unit (RUU) size
-lsq:size                   8 # load/store queue (LSQ) size
-cache:dl1       dl1:32:64:8:f # l1 data cache config, i.e., {<config>|none}
-cache:dl1lat               1 # l1 data cache hit latency (in cycles)
-cache:dl2       dl2:256:64:8:f # l2 data cache config, i.e., {<config>|none}
-cache:dl2lat               2 # l2 data cache hit latency (in cycles)
-cache:il1       il1:32:64:8:f # l1 inst cache config, i.e., {<config>|dl1|dl2|none}
-cache:il1lat               1 # l1 instruction cache hit latency (in cycles)
-cache:il2                dl2 # l2 instruction cache config, i.e., {<config>|dl2|none}
-cache:il2lat               2 # l2 instruction cache hit latency (in cycles)
-cache:flush            false # flush caches on system calls
-cache:icompress        false # convert 64-bit inst addresses to 32-bit inst equivalents
-mem:lat         103 1 # memory access latency (<first_chunk> <inter_chunk>)
-mem:width                  8 # memory access bus width (in bytes)
-tlb:itlb        itlb:16:4096:4:l # instruction TLB config, i.e., {<config>|none}
-tlb:dtlb        dtlb:32:4096:4:l # data TLB config, i.e., {<config>|none}
-tlb:lat                   30 # inst/data TLB miss latency (in cycles)
-res:ialu                   4 # total number of integer ALU's available
-res:imult                  2 # total number of integer multiplier/dividers available
-res:memport                4 # total number of memory system ports available (to CPU)
-res:fpalu                  8 # total number of floating point ALU's available
-res:fpmult                 2 # total number of floating point multiplier/dividers available
# -pcstat              <null> # profile stat(s) against text addr's (mult uses ok)
-bugcompat              false # operate in backward-compatible bugs mode (for testing only)

  Pipetrace range arguments are formatted as follows:

    {{@|#}<start>}:{{@|#|+}<end>}

  Both ends of the range are optional, if neither are specified, the entire
  execution is traced.  Ranges that start with a `@' designate an address
  range to be traced, those that start with an `#' designate a cycle count
  range.  All other range values represent an instruction count range.  The
  second argument, if specified with a `+', indicates a value relative
  to the first argument, e.g., 1000:+100 == 1000:1100.  Program symbols may
  be used in all contexts.

    Examples:   -ptrace FOO.trc #0:#1000
                -ptrace BAR.trc @2000:
                -ptrace BLAH.trc :1500
                -ptrace UXXE.trc :
                -ptrace FOOBAR.trc @main:+278

  Branch predictor configuration examples for 2-level predictor:
    Configurations:   N, M, W, X
      N   # entries in first level (# of shift register(s))
      W   width of shift register(s)
      M   # entries in 2nd level (# of counters, or other FSM)
      X   (yes-1/no-0) xor history and address for 2nd level index
    Sample predictors:
      GAg     : 1, W, 2^W, 0
      GAp     : 1, W, M (M > 2^W), 0
      PAg     : N, W, 2^W, 0
      PAp     : N, W, M (M == 2^(N+W)), 0
      gshare  : 1, W, 2^W, 1
  Predictor `comb' combines a bimodal and a 2-level predictor.

  The cache config parameter <config> has the following format:

    <name>:<nsets>:<bsize>:<assoc>:<repl>

    <name>   - name of the cache being defined
    <nsets>  - number of sets in the cache
    <bsize>  - block size of the cache
    <assoc>  - associativity of the cache
    <repl>   - block replacement strategy, 'l'-LRU, 'f'-FIFO, 'r'-random

    Examples:   -cache:dl1 dl1:4096:32:1:l
                -dtlb dtlb:128:4096:32:r

  Cache levels can be unified by pointing a level of the instruction cache
  hierarchy at the data cache hiearchy using the "dl1" and "dl2" cache
  configuration arguments.  Most sensible combinations are supported, e.g.,

    A unified l2 cache (il2 is pointed at dl2):
      -cache:il1 il1:128:64:1:l -cache:il2 dl2
      -cache:dl1 dl1:256:32:1:l -cache:dl2 ul2:1024:64:2:l

    Or, a fully unified cache hierarchy (il1 pointed at dl1):
      -cache:il1 dl1
      -cache:dl1 ul1:256:32:1:l -cache:dl2 ul2:1024:64:2:l



sim: ** starting performance simulation **

sim: ** simulation statistics **
sim_num_insn              100000001 # total number of instructions committed
sim_num_refs               38466235 # total number of loads and stores committed
sim_num_loads              26218244 # total number of loads committed
sim_num_stores         12247991.0000 # total number of stores committed
sim_num_branches           17896986 # total number of branches committed
sim_elapsed_time                122 # total simulation time in seconds
sim_inst_rate           819672.1393 # simulation speed (in insts/sec)
sim_total_insn            107210742 # total number of instructions executed
sim_total_refs             41241633 # total number of loads and stores executed
sim_total_loads            28019011 # total number of loads executed
sim_total_stores       13222622.0000 # total number of stores executed
sim_total_branches         19274073 # total number of branches executed
sim_cycle                  90667164 # total simulation time in cycles
sim_IPC                      1.1029 # instructions per cycle
sim_CPI                      0.9067 # cycles per instruction
sim_exec_BW                  1.1825 # total instructions (mis-spec + committed) per cycle
sim_IPB                      5.5875 # instruction per branch
IFQ_count                 941079118 # cumulative IFQ occupancy
IFQ_fcount                 53061493 # cumulative IFQ full count
ifq_occupancy               10.3795 # avg IFQ occupancy (insn's)
ifq_rate                     1.1825 # avg IFQ dispatch rate (insn/cycle)
ifq_latency                  8.7778 # avg IFQ occupant latency (cycle's)
ifq_full                     0.5852 # fraction of time (cycle's) IFQ was full
RUU_count                1375398578 # cumulative RUU occupancy
RUU_fcount                    55640 # cumulative RUU full count
ruu_occupancy               15.1698 # avg RUU occupancy (insn's)
ruu_rate                     1.1825 # avg RUU dispatch rate (insn/cycle)
ruu_latency                 12.8289 # avg RUU occupant latency (cycle's)
ruu_full                     0.0006 # fraction of time (cycle's) RUU was full
LSQ_count                 504017740 # cumulative LSQ occupancy
LSQ_fcount                 59989145 # cumulative LSQ full count
lsq_occupancy                5.5590 # avg LSQ occupancy (insn's)
lsq_rate                     1.1825 # avg LSQ dispatch rate (insn/cycle)
lsq_latency                  4.7012 # avg LSQ occupant latency (cycle's)
lsq_full                     0.6616 # fraction of time (cycle's) LSQ was full
sim_slip                 1969782618 # total number of slip cycles
avg_sim_slip                19.6978 # the average slip between issue and retirement
bpred_2lev.lookups         19898274 # total number of bpred lookups
bpred_2lev.updates         17896978 # total number of updates
bpred_2lev.addr_hits       17042437 # total number of address-predicted hits
bpred_2lev.dir_hits        17281114 # total number of direction-predicted hits (includes addr-hits)
bpred_2lev.misses            615864 # total number of misses
bpred_2lev.jr_hits          1419428 # total number of address-predicted hits for JR's
bpred_2lev.jr_seen          1651260 # total number of JR's seen
bpred_2lev.jr_non_ras_hits.PP         9264 # total number of address-predicted hits for non-RAS JR's
bpred_2lev.jr_non_ras_seen.PP        11641 # total number of non-RAS JR's seen
bpred_2lev.bpred_addr_rate    0.9523 # branch address-prediction rate (i.e., addr-hits/updates)
bpred_2lev.bpred_dir_rate    0.9656 # branch direction-prediction rate (i.e., all-hits/updates)
bpred_2lev.bpred_jr_rate    0.8596 # JR address-prediction rate (i.e., JR addr-hits/JRs seen)
bpred_2lev.bpred_jr_non_ras_rate.PP    0.7958 # non-RAS JR addr-pred rate (ie, non-RAS JR hits/JRs seen)
bpred_2lev.retstack_pushes      2047557 # total number of address pushed onto ret-addr stack
bpred_2lev.retstack_pops      1822879 # total number of address popped off of ret-addr stack
bpred_2lev.used_ras.PP      1639619 # total number of RAS predictions used
bpred_2lev.ras_hits.PP      1410164 # total number of RAS hits
bpred_2lev.ras_rate.PP    0.8601 # RAS prediction rate (i.e., RAS hits/used RAS)
il1.accesses              112904696 # total number of accesses
il1.hits                  112492341 # total number of hits
il1.misses                   412355 # total number of misses
il1.replacements             412099 # total number of replacements
il1.writebacks                    0 # total number of writebacks
il1.invalidations                 0 # total number of invalidations
il1.miss_rate                0.0037 # miss rate (i.e., misses/ref)
il1.repl_rate                0.0036 # replacement rate (i.e., repls/ref)
il1.wb_rate                  0.0000 # writeback rate (i.e., wrbks/ref)
il1.inv_rate                 0.0000 # invalidation rate (i.e., invs/ref)
dl1.accesses               38767783 # total number of accesses
dl1.hits                   38239407 # total number of hits
dl1.misses                   528376 # total number of misses
dl1.replacements             528120 # total number of replacements
dl1.writebacks                61586 # total number of writebacks
dl1.invalidations                 0 # total number of invalidations
dl1.miss_rate                0.0136 # miss rate (i.e., misses/ref)
dl1.repl_rate                0.0136 # replacement rate (i.e., repls/ref)
dl1.wb_rate                  0.0016 # writeback rate (i.e., wrbks/ref)
dl1.inv_rate                 0.0000 # invalidation rate (i.e., invs/ref)
dl2.accesses                1002317 # total number of accesses
dl2.hits                     525053 # total number of hits
dl2.misses                   477264 # total number of misses
dl2.replacements             475216 # total number of replacements
dl2.writebacks                31352 # total number of writebacks
dl2.invalidations                 0 # total number of invalidations
dl2.miss_rate                0.4762 # miss rate (i.e., misses/ref)
dl2.repl_rate                0.4741 # replacement rate (i.e., repls/ref)
dl2.wb_rate                  0.0313 # writeback rate (i.e., wrbks/ref)
dl2.inv_rate                 0.0000 # invalidation rate (i.e., invs/ref)
itlb.accesses             112904696 # total number of accesses
itlb.hits                 112900309 # total number of hits
itlb.misses                    4387 # total number of misses
itlb.replacements              4325 # total number of replacements
itlb.writebacks                   0 # total number of writebacks
itlb.invalidations                0 # total number of invalidations
itlb.miss_rate               0.0000 # miss rate (i.e., misses/ref)
itlb.repl_rate               0.0000 # replacement rate (i.e., repls/ref)
itlb.wb_rate                 0.0000 # writeback rate (i.e., wrbks/ref)
itlb.inv_rate                0.0000 # invalidation rate (i.e., invs/ref)
dtlb.accesses              39117032 # total number of accesses
dtlb.hits                  38996232 # total number of hits
dtlb.misses                  120800 # total number of misses
dtlb.replacements            120672 # total number of replacements
dtlb.writebacks                   0 # total number of writebacks
dtlb.invalidations                0 # total number of invalidations
dtlb.miss_rate               0.0031 # miss rate (i.e., misses/ref)
dtlb.repl_rate               0.0031 # replacement rate (i.e., repls/ref)
dtlb.wb_rate                 0.0000 # writeback rate (i.e., wrbks/ref)
dtlb.inv_rate                0.0000 # invalidation rate (i.e., invs/ref)
rename_power           296546772.1339 # total power usage of rename unit
bpred_power            258258586.9346 # total power usage of bpred unit
window_power           3918274846.5696 # total power usage of instruction window
lsq_power              353232781.0036 # total power usage of load/store queue
regfile_power          2279258504.5489 # total power usage of arch. regfile
icache_power           274963061.1653 # total power usage of icache
dcache_power           1167593255.1016 # total power usage of dcache
dcache2_power          281338103.7839 # total power usage of dcache2
alu_power              3012164504.3911 # total power usage of alu
falu_power             2589643690.6843 # total power usage of falu
resultbus_power        2840431441.0884 # total power usage of resultbus
clock_power            5554550387.2628 # total power usage of clock
avg_rename_power             3.2707 # avg power usage of rename unit
avg_bpred_power              2.8484 # avg power usage of bpred unit
avg_window_power            43.2160 # avg power usage of instruction window
avg_lsq_power                3.8959 # avg power usage of lsq
avg_regfile_power           25.1387 # avg power usage of arch. regfile
avg_icache_power             3.0327 # avg power usage of icache
avg_dcache_power            12.8778 # avg power usage of dcache
avg_dcache2_power            3.1030 # avg power usage of dcache2
avg_alu_power               33.2222 # avg power usage of alu
avg_falu_power              28.5621 # avg power usage of falu
avg_resultbus_power         31.3281 # avg power usage of resultbus
avg_clock_power             61.2631 # avg power usage of clock
fetch_stage_power      533221648.0999 # total power usage of fetch stage
dispatch_stage_power   296546772.1339 # total power usage of dispatch stage
issue_stage_power      11573034931.9381 # total power usage of issue stage
avg_fetch_power              5.8811 # average power of fetch unit per cycle
avg_dispatch_power           3.2707 # average power of dispatch unit per cycle
avg_issue_power            127.6431 # average power of issue unit per cycle
total_power            20236612243.9835 # total power per cycle
avg_total_power_cycle      223.1967 # average total power per cycle
avg_total_power_cycle_nofp_nod2     191.5316 # average total power per cycle
avg_total_power_insn       188.7555 # average total power per insn
avg_total_power_insn_nofp_nod2     161.9766 # average total power per insn
rename_power_cc1       63873868.5558 # total power usage of rename unit_cc1
bpred_power_cc1        33295462.4154 # total power usage of bpred unit_cc1
window_power_cc1       1372239451.5889 # total power usage of instruction window_cc1
lsq_power_cc1          39850441.7522 # total power usage of lsq_cc1
regfile_power_cc1      659362495.9872 # total power usage of arch. regfile_cc1
icache_power_cc1       69243890.4886 # total power usage of icache_cc1
dcache_power_cc1       278052306.2721 # total power usage of dcache_cc1
dcache2_power_cc1      2848067.2303 # total power usage of dcache2_cc1
alu_power_cc1          148806385.6714 # total power usage of alu_cc1
resultbus_power_cc1    951032466.7451 # total power usage of resultbus_cc1
clock_power_cc1        1398100401.8918 # total power usage of clock_cc1
avg_rename_power_cc1         0.7045 # avg power usage of rename unit_cc1
avg_bpred_power_cc1          0.3672 # avg power usage of bpred unit_cc1
avg_window_power_cc1        15.1349 # avg power usage of instruction window_cc1
avg_lsq_power_cc1            0.4395 # avg power usage of lsq_cc1
avg_regfile_power_cc1        7.2723 # avg power usage of arch. regfile_cc1
avg_icache_power_cc1         0.7637 # avg power usage of icache_cc1
avg_dcache_power_cc1         3.0667 # avg power usage of dcache_cc1
avg_dcache2_power_cc1        0.0314 # avg power usage of dcache2_cc1
avg_alu_power_cc1            1.6412 # avg power usage of alu_cc1
avg_resultbus_power_cc1      10.4893 # avg power usage of resultbus_cc1
avg_clock_power_cc1         15.4201 # avg power usage of clock_cc1
fetch_stage_power_cc1  102539352.9039 # total power usage of fetch stage_cc1
dispatch_stage_power_cc1 63873868.5558 # total power usage of dispatch stage_cc1
issue_stage_power_cc1  2792829119.2600 # total power usage of issue stage_cc1
avg_fetch_power_cc1          1.1309 # average power of fetch unit per cycle_cc1
avg_dispatch_power_cc1       0.7045 # average power of dispatch unit per cycle_cc1
avg_issue_power_cc1         30.8031 # average power of issue unit per cycle_cc1
total_power_cycle_cc1  5016705238.5988 # total power per cycle_cc1
avg_total_power_cycle_cc1      55.3310 # average total power per cycle_cc1
avg_total_power_insn_cc1      46.7929 # average total power per insn_cc1
rename_power_cc2       21916009.9678 # total power usage of rename unit_cc2
bpred_power_cc2        25489096.8293 # total power usage of bpred unit_cc2
window_power_cc2       413016289.8397 # total power usage of instruction window_cc2
lsq_power_cc2          15744297.4444 # total power usage of lsq_cc2
regfile_power_cc2      62242255.1557 # total power usage of arch. regfile_cc2
icache_power_cc2       69243890.4886 # total power usage of icache_cc2
dcache_power_cc2       124810901.3124 # total power usage of dcache_cc2
dcache2_power_cc2       777541.5923 # total power usage of dcache2_cc2
alu_power_cc2          120332026.8571 # total power usage of alu_cc2
resultbus_power_cc2    204034300.4898 # total power usage of resultbus_cc2
clock_power_cc2        409025656.1931 # total power usage of clock_cc2
avg_rename_power_cc2         0.2417 # avg power usage of rename unit_cc2
avg_bpred_power_cc2          0.2811 # avg power usage of bpred unit_cc2
avg_window_power_cc2         4.5553 # avg power usage of instruction window_cc2
avg_lsq_power_cc2            0.1736 # avg power usage of instruction lsq_cc2
avg_regfile_power_cc2        0.6865 # avg power usage of arch. regfile_cc2
avg_icache_power_cc2         0.7637 # avg power usage of icache_cc2
avg_dcache_power_cc2         1.3766 # avg power usage of dcache_cc2
avg_dcache2_power_cc2        0.0086 # avg power usage of dcache2_cc2
avg_alu_power_cc2            1.3272 # avg power usage of alu_cc2
avg_resultbus_power_cc2       2.2504 # avg power usage of resultbus_cc2
avg_clock_power_cc2          4.5113 # avg power usage of clock_cc2
fetch_stage_power_cc2  94732987.3179 # total power usage of fetch stage_cc2
dispatch_stage_power_cc2 21916009.9678 # total power usage of dispatch stage_cc2
issue_stage_power_cc2  878715357.5357 # total power usage of issue stage_cc2
avg_fetch_power_cc2          1.0448 # average power of fetch unit per cycle_cc2
avg_dispatch_power_cc2       0.2417 # average power of dispatch unit per cycle_cc2
avg_issue_power_cc2          9.6917 # average power of issue unit per cycle_cc2
total_power_cycle_cc2  1466632266.1703 # total power per cycle_cc2
avg_total_power_cycle_cc2      16.1760 # average total power per cycle_cc2
avg_total_power_insn_cc2      13.6799 # average total power per insn_cc2
rename_power_cc3       45183300.4211 # total power usage of rename unit_cc3
bpred_power_cc3        48515017.3809 # total power usage of bpred unit_cc3
window_power_cc3       653128034.9136 # total power usage of instruction window_cc3
lsq_power_cc3          46869674.2148 # total power usage of lsq_cc3
regfile_power_cc3      217201768.6277 # total power usage of arch. regfile_cc3
icache_power_cc3       89815807.7122 # total power usage of icache_cc3
dcache_power_cc3       213803307.8485 # total power usage of dcache_cc3
dcache2_power_cc3      28626552.0219 # total power usage of dcache2_cc3
alu_power_cc3          406667838.2377 # total power usage of alu_cc3
resultbus_power_cc3    386633981.2923 # total power usage of resultbus_cc3
clock_power_cc3        814039081.0150 # total power usage of clock_cc3
avg_rename_power_cc3         0.4983 # avg power usage of rename unit_cc3
avg_bpred_power_cc3          0.5351 # avg power usage of bpred unit_cc3
avg_window_power_cc3         7.2036 # avg power usage of instruction window_cc3
avg_lsq_power_cc3            0.5169 # avg power usage of instruction lsq_cc3
avg_regfile_power_cc3        2.3956 # avg power usage of arch. regfile_cc3
avg_icache_power_cc3         0.9906 # avg power usage of icache_cc3
avg_dcache_power_cc3         2.3581 # avg power usage of dcache_cc3
avg_dcache2_power_cc3        0.3157 # avg power usage of dcache2_cc3
avg_alu_power_cc3            4.4853 # avg power usage of alu_cc3
avg_resultbus_power_cc3       4.2643 # avg power usage of resultbus_cc3
avg_clock_power_cc3          8.9783 # avg power usage of clock_cc3
fetch_stage_power_cc3  138330825.0932 # total power usage of fetch stage_cc3
dispatch_stage_power_cc3 45183300.4211 # total power usage of dispatch stage_cc3
issue_stage_power_cc3  1735729388.5287 # total power usage of issue stage_cc3
avg_fetch_power_cc3          1.5257 # average power of fetch unit per cycle_cc3
avg_dispatch_power_cc3       0.4983 # average power of dispatch unit per cycle_cc3
avg_issue_power_cc3         19.1440 # average power of issue unit per cycle_cc3
total_power_cycle_cc3  2950484363.6857 # total power per cycle_cc3
avg_total_power_cycle_cc3      32.5419 # average total power per cycle_cc3
avg_total_power_insn_cc3      27.5204 # average total power per insn_cc3
total_rename_access       107210742 # total number accesses of rename unit
total_bpred_access         17896978 # total number accesses of bpred unit
total_window_access       397057469 # total number accesses of instruction window
total_lsq_access           39779800 # total number accesses of load/store queue
total_regfile_access      132974087 # total number accesses of arch. regfile
total_icache_access       117048186 # total number accesses of icache
total_dcache_access        38767783 # total number accesses of dcache
total_dcache2_access        1002317 # total number accesses of dcache2
total_alu_access          103120803 # total number accesses of alu
total_resultbus_access    111152084 # total number accesses of resultbus
avg_rename_access            1.1825 # avg number accesses of rename unit
avg_bpred_access             0.1974 # avg number accesses of bpred unit
avg_window_access            4.3793 # avg number accesses of instruction window
avg_lsq_access               0.4387 # avg number accesses of lsq
avg_regfile_access           1.4666 # avg number accesses of arch. regfile
avg_icache_access            1.2910 # avg number accesses of icache
avg_dcache_access            0.4276 # avg number accesses of dcache
avg_dcache2_access           0.0111 # avg number accesses of dcache2
avg_alu_access               1.1374 # avg number accesses of alu
avg_resultbus_access         1.2259 # avg number accesses of resultbus
max_rename_access                16 # max number accesses of rename unit
max_bpred_access                  7 # max number accesses of bpred unit
max_window_access                45 # max number accesses of instruction window
max_lsq_access                    7 # max number accesses of load/store queue
max_regfile_access               31 # max number accesses of arch. regfile
max_icache_access                16 # max number accesses of icache
max_dcache_access                 7 # max number accesses of dcache
max_dcache2_access                7 # max number accesses of dcache2
max_alu_access                    7 # max number accesses of alu
max_resultbus_access             10 # max number accesses of resultbus
max_cycle_power_cc1        169.7101 # maximum cycle power usage of cc1
max_cycle_power_cc2         78.6971 # maximum cycle power usage of cc2
max_cycle_power_cc3         88.0723 # maximum cycle power usage of cc3
sim_invalid_addrs                 0 # total non-speculative bogus addresses seen (debug var)
ld_text_base           0x0120000000 # program text (code) segment base
ld_text_size                 819200 # program text (code) size in bytes
ld_data_base           0x0140000000 # program initialized data segment base
ld_data_size                 118976 # program init'ed `.data' and uninit'ed `.bss' size in bytes
ld_stack_base          0x011ff9b000 # program stack segment base (highest address in stack)
ld_stack_size                 16384 # program initial stack size
ld_prog_entry          0x012005fd04 # program entry point (initial PC)
ld_environ_base        0x011ff961e0 # program environment base address address
ld_target_big_endian              0 # target executable endian-ness, non-zero if big endian
mem.page_count                 7673 # total number of pages allocated
mem.page_mem                 61384k # total size of memory pages allocated
mem.ptab_misses                9481 # total first level page table misses
mem.ptab_accesses         811069386 # total page table accesses
mem.ptab_miss_rate           0.0000 # first level page table miss rate

