sim-outorder: SimpleScalar/Alpha Tool Set version 3.0 of August, 2003.
Copyright (c) 1994-2003 by Todd M. Austin, Ph.D. and SimpleScalar, LLC.
All Rights Reserved. This version of SimpleScalar is licensed for academic
non-commercial use.  No portion of this work may be used by any commercial
entity, or for any commercial purpose, without the prior written permission
of SimpleScalar, LLC (info@simplescalar.com).


Processor Parameters:
Issue Width: 16
Window Size: 64
Number of Virtual Registers: 32
Number of Physical Registers: 64
Datapath Width: 64
Total Power Consumption: 225.197
Branch Predictor Power Consumption: 2.84842  (1.28%)
 branch target buffer power (W): 2.49493
 local predict power (W): 0.0867068
 global predict power (W): 0.0996078
 chooser power (W): 0.0702439
 RAS power (W): 0.0969383
Rename Logic Power Consumption: 3.27072  (1.47%)
 Instruction Decode Power (W): 0.0639661
 RAT decode_power (W): 0.454058
 RAT wordline_power (W): 0.227603
 RAT bitline_power (W): 2.30694
 DCL Comparators (W): 0.218151
Instruction Window Power Consumption: 43.216  (19.4%)
 tagdrive (W): 2.9395
 tagmatch (W): 0.989695
 Selection Logic (W): 0.225484
 decode_power (W): 0.976583
 wordline_power (W): 1.0557
 bitline_power (W): 37.0291
Load/Store Queue Power Consumption: 3.89593  (1.75%)
 tagdrive (W): 0.980932
 tagmatch (W): 0.214942
 decode_power (W): 0.0159915
 wordline_power (W): 0.0433172
 bitline_power (W): 2.64075
Arch. Register File Power Consumption: 25.1387  (11.3%)
 decode_power (W): 0.454058
 wordline_power (W): 1.0557
 bitline_power (W): 23.629
Result Bus Power Consumption: 31.3281  (14%)
Total Clock Power: 61.2631  (27.4%)
Int ALU Power: 4.66013  (2.09%)
FP ALU Power: 28.5621  (12.8%)
Instruction Cache Power Consumption: 2.76773  (1.24%)
 decode_power (W): 0.151353
 wordline_power (W): 0.180479
 bitline_power (W): 1.42251
 senseamp_power (W): 0.768
 tagarray_power (W): 0.245382
Itlb_power (W): 0.264936 (0.119%)
Data Cache Power Consumption: 11.0709  (4.96%)
 decode_power (W): 0.60541
 wordline_power (W): 0.721917
 bitline_power (W): 5.69006
 senseamp_power (W): 3.072
 tagarray_power (W): 0.981529
Dtlb_power (W): 1.80688 (0.81%)
Level 2 Cache Power Consumption: 3.10298 (1.39%)
 decode_power (W): 0.19487
 wordline_power (W): 0.0430878
 bitline_power (W): 1.77274
 senseamp_power (W): 0.192
 tagarray_power (W): 0.900275
sim: loading EIO file: ../benchmarks/255.vortex.one-ref.eio.gz
sim: command line: ./sim-outorder -config ../configs/current.config ../benchmarks/255.vortex.one-ref.eio.gz 

sim: simulation started @ Tue Nov 24 11:32:07 2015, options follow:

sim-outorder: This simulator implements a very detailed out-of-order issue
superscalar processor with a two-level memory system and speculative
execution support.  This simulator is a performance simulator, tracking the
latency of all pipeline operations.

# -config                     # load configuration from a file
# -dumpconfig                 # dump configuration to a file
# -h                    false # print help message    
# -v                    false # verbose operation     
# -d                    false # enable debug message  
# -i                    false # start in Dlite debugger
-seed                       1 # random number generator seed (0 for timer seed)
# -q                    false # initialize and terminate immediately
# -chkpt               <null> # restore EIO trace execution from <fname>
# -redir:sim     ../results/21_20_matt/255.vortex.one-ref.eio.gz.out # redirect simulator output to file (non-interactive only)
# -redir:prog       /dev/null # redirect simulated program output to file
-nice                       0 # simulator scheduling priority
-freq            600000000.0000 # frequency             
-max:inst           100000000 # maximum number of inst's to execute
-fastfwd                    0 # number of insts skipped before timing starts
# -ptrace              <null> # generate pipetrace, i.e., <fname|stdout|stderr> <range>
-fetch:ifqsize             16 # instruction fetch queue size (in insts)
-fetch:mplat               15 # extra branch mis-prediction latency
-fetch:speed                1 # speed of front-end of machine relative to execution core
-bpred                   2lev # branch predictor type {nottaken|taken|perfect|bimod|2lev|comb}
-bpred:bimod     2048 # bimodal predictor config (<table size>)
-bpred:2lev      1 1024 4 0 # 2-level predictor config (<l1size> <l2size> <hist_size> <xor>)
-bpred:comb      1024 # combining predictor config (<meta_table_size>)
-bpred:ras                  8 # return address stack size (0 for no return stack)
-bpred:btb       512 4 # BTB config (<num_sets> <associativity>)
# -bpred:spec_update       <null> # speculative predictors update in {ID|WB} (default non-spec)
-decode:width              16 # instruction decode B/W (insts/cycle)
-issue:width               16 # instruction issue B/W (insts/cycle)
-issue:inorder          false # run pipeline with in-order issue
-issue:wrongpath         true # issue instructions down wrong execution paths
-commit:width              16 # instruction commit B/W (insts/cycle)
-ruu:size                  64 # register update unit (RUU) size
-lsq:size                   8 # load/store queue (LSQ) size
-cache:dl1       dl1:32:64:8:f # l1 data cache config, i.e., {<config>|none}
-cache:dl1lat               1 # l1 data cache hit latency (in cycles)
-cache:dl2       dl2:256:64:8:f # l2 data cache config, i.e., {<config>|none}
-cache:dl2lat               2 # l2 data cache hit latency (in cycles)
-cache:il1       il1:32:64:8:f # l1 inst cache config, i.e., {<config>|dl1|dl2|none}
-cache:il1lat               1 # l1 instruction cache hit latency (in cycles)
-cache:il2                dl2 # l2 instruction cache config, i.e., {<config>|dl2|none}
-cache:il2lat               2 # l2 instruction cache hit latency (in cycles)
-cache:flush            false # flush caches on system calls
-cache:icompress        false # convert 64-bit inst addresses to 32-bit inst equivalents
-mem:lat         103 1 # memory access latency (<first_chunk> <inter_chunk>)
-mem:width                  8 # memory access bus width (in bytes)
-tlb:itlb        itlb:16:4096:4:l # instruction TLB config, i.e., {<config>|none}
-tlb:dtlb        dtlb:32:4096:4:l # data TLB config, i.e., {<config>|none}
-tlb:lat                   30 # inst/data TLB miss latency (in cycles)
-res:ialu                   4 # total number of integer ALU's available
-res:imult                  2 # total number of integer multiplier/dividers available
-res:memport                4 # total number of memory system ports available (to CPU)
-res:fpalu                  8 # total number of floating point ALU's available
-res:fpmult                 2 # total number of floating point multiplier/dividers available
# -pcstat              <null> # profile stat(s) against text addr's (mult uses ok)
-bugcompat              false # operate in backward-compatible bugs mode (for testing only)

  Pipetrace range arguments are formatted as follows:

    {{@|#}<start>}:{{@|#|+}<end>}

  Both ends of the range are optional, if neither are specified, the entire
  execution is traced.  Ranges that start with a `@' designate an address
  range to be traced, those that start with an `#' designate a cycle count
  range.  All other range values represent an instruction count range.  The
  second argument, if specified with a `+', indicates a value relative
  to the first argument, e.g., 1000:+100 == 1000:1100.  Program symbols may
  be used in all contexts.

    Examples:   -ptrace FOO.trc #0:#1000
                -ptrace BAR.trc @2000:
                -ptrace BLAH.trc :1500
                -ptrace UXXE.trc :
                -ptrace FOOBAR.trc @main:+278

  Branch predictor configuration examples for 2-level predictor:
    Configurations:   N, M, W, X
      N   # entries in first level (# of shift register(s))
      W   width of shift register(s)
      M   # entries in 2nd level (# of counters, or other FSM)
      X   (yes-1/no-0) xor history and address for 2nd level index
    Sample predictors:
      GAg     : 1, W, 2^W, 0
      GAp     : 1, W, M (M > 2^W), 0
      PAg     : N, W, 2^W, 0
      PAp     : N, W, M (M == 2^(N+W)), 0
      gshare  : 1, W, 2^W, 1
  Predictor `comb' combines a bimodal and a 2-level predictor.

  The cache config parameter <config> has the following format:

    <name>:<nsets>:<bsize>:<assoc>:<repl>

    <name>   - name of the cache being defined
    <nsets>  - number of sets in the cache
    <bsize>  - block size of the cache
    <assoc>  - associativity of the cache
    <repl>   - block replacement strategy, 'l'-LRU, 'f'-FIFO, 'r'-random

    Examples:   -cache:dl1 dl1:4096:32:1:l
                -dtlb dtlb:128:4096:32:r

  Cache levels can be unified by pointing a level of the instruction cache
  hierarchy at the data cache hiearchy using the "dl1" and "dl2" cache
  configuration arguments.  Most sensible combinations are supported, e.g.,

    A unified l2 cache (il2 is pointed at dl2):
      -cache:il1 il1:128:64:1:l -cache:il2 dl2
      -cache:dl1 dl1:256:32:1:l -cache:dl2 ul2:1024:64:2:l

    Or, a fully unified cache hierarchy (il1 pointed at dl1):
      -cache:il1 dl1
      -cache:dl1 ul1:256:32:1:l -cache:dl2 ul2:1024:64:2:l



sim: ** starting performance simulation **

sim: ** simulation statistics **
sim_num_insn              100000004 # total number of instructions committed
sim_num_refs               39733917 # total number of loads and stores committed
sim_num_loads              26491579 # total number of loads committed
sim_num_stores         13242338.0000 # total number of stores committed
sim_num_branches           17614916 # total number of branches committed
sim_elapsed_time                159 # total simulation time in seconds
sim_inst_rate           628930.8428 # simulation speed (in insts/sec)
sim_total_insn            107650699 # total number of instructions executed
sim_total_refs             42665885 # total number of loads and stores executed
sim_total_loads            28408228 # total number of loads executed
sim_total_stores       14257657.0000 # total number of stores executed
sim_total_branches         19066986 # total number of branches executed
sim_cycle                  87388604 # total simulation time in cycles
sim_IPC                      1.1443 # instructions per cycle
sim_CPI                      0.8739 # cycles per instruction
sim_exec_BW                  1.2319 # total instructions (mis-spec + committed) per cycle
sim_IPB                      5.6770 # instruction per branch
IFQ_count                 839359308 # cumulative IFQ occupancy
IFQ_fcount                 46387515 # cumulative IFQ full count
ifq_occupancy                9.6049 # avg IFQ occupancy (insn's)
ifq_rate                     1.2319 # avg IFQ dispatch rate (insn/cycle)
ifq_latency                  7.7971 # avg IFQ occupant latency (cycle's)
ifq_full                     0.5308 # fraction of time (cycle's) IFQ was full
RUU_count                1202343564 # cumulative RUU occupancy
RUU_fcount                    61532 # cumulative RUU full count
ruu_occupancy               13.7586 # avg RUU occupancy (insn's)
ruu_rate                     1.2319 # avg RUU dispatch rate (insn/cycle)
ruu_latency                 11.1689 # avg RUU occupant latency (cycle's)
ruu_full                     0.0007 # fraction of time (cycle's) RUU was full
LSQ_count                 455263564 # cumulative LSQ occupancy
LSQ_fcount                 53693275 # cumulative LSQ full count
lsq_occupancy                5.2096 # avg LSQ occupancy (insn's)
lsq_rate                     1.2319 # avg LSQ dispatch rate (insn/cycle)
lsq_latency                  4.2291 # avg LSQ occupant latency (cycle's)
lsq_full                     0.6144 # fraction of time (cycle's) LSQ was full
sim_slip                 1743554621 # total number of slip cycles
avg_sim_slip                17.4355 # the average slip between issue and retirement
bpred_2lev.lookups         19739824 # total number of bpred lookups
bpred_2lev.updates         17614915 # total number of updates
bpred_2lev.addr_hits       16689554 # total number of address-predicted hits
bpred_2lev.dir_hits        16928711 # total number of direction-predicted hits (includes addr-hits)
bpred_2lev.misses            686204 # total number of misses
bpred_2lev.jr_hits          1538589 # total number of address-predicted hits for JR's
bpred_2lev.jr_seen          1769403 # total number of JR's seen
bpred_2lev.jr_non_ras_hits.PP         7922 # total number of address-predicted hits for non-RAS JR's
bpred_2lev.jr_non_ras_seen.PP        10622 # total number of non-RAS JR's seen
bpred_2lev.bpred_addr_rate    0.9475 # branch address-prediction rate (i.e., addr-hits/updates)
bpred_2lev.bpred_dir_rate    0.9610 # branch direction-prediction rate (i.e., all-hits/updates)
bpred_2lev.bpred_jr_rate    0.8696 # JR address-prediction rate (i.e., JR addr-hits/JRs seen)
bpred_2lev.bpred_jr_non_ras_rate.PP    0.7458 # non-RAS JR addr-pred rate (ie, non-RAS JR hits/JRs seen)
bpred_2lev.retstack_pushes      2176847 # total number of address pushed onto ret-addr stack
bpred_2lev.retstack_pops      1961018 # total number of address popped off of ret-addr stack
bpred_2lev.used_ras.PP      1758781 # total number of RAS predictions used
bpred_2lev.ras_hits.PP      1530667 # total number of RAS hits
bpred_2lev.ras_rate.PP    0.8703 # RAS prediction rate (i.e., RAS hits/used RAS)
il1.accesses              113602845 # total number of accesses
il1.hits                  113039888 # total number of hits
il1.misses                   562957 # total number of misses
il1.replacements             562701 # total number of replacements
il1.writebacks                    0 # total number of writebacks
il1.invalidations                 0 # total number of invalidations
il1.miss_rate                0.0050 # miss rate (i.e., misses/ref)
il1.repl_rate                0.0050 # replacement rate (i.e., repls/ref)
il1.wb_rate                  0.0000 # writeback rate (i.e., wrbks/ref)
il1.inv_rate                 0.0000 # invalidation rate (i.e., invs/ref)
dl1.accesses               40074921 # total number of accesses
dl1.hits                   39583195 # total number of hits
dl1.misses                   491726 # total number of misses
dl1.replacements             491470 # total number of replacements
dl1.writebacks                78931 # total number of writebacks
dl1.invalidations                 0 # total number of invalidations
dl1.miss_rate                0.0123 # miss rate (i.e., misses/ref)
dl1.repl_rate                0.0123 # replacement rate (i.e., repls/ref)
dl1.wb_rate                  0.0020 # writeback rate (i.e., wrbks/ref)
dl1.inv_rate                 0.0000 # invalidation rate (i.e., invs/ref)
dl2.accesses                1133614 # total number of accesses
dl2.hits                     700848 # total number of hits
dl2.misses                   432766 # total number of misses
dl2.replacements             430718 # total number of replacements
dl2.writebacks                37922 # total number of writebacks
dl2.invalidations                 0 # total number of invalidations
dl2.miss_rate                0.3818 # miss rate (i.e., misses/ref)
dl2.repl_rate                0.3800 # replacement rate (i.e., repls/ref)
dl2.wb_rate                  0.0335 # writeback rate (i.e., wrbks/ref)
dl2.inv_rate                 0.0000 # invalidation rate (i.e., invs/ref)
itlb.accesses             113602845 # total number of accesses
itlb.hits                 113596353 # total number of hits
itlb.misses                    6492 # total number of misses
itlb.replacements              6429 # total number of replacements
itlb.writebacks                   0 # total number of writebacks
itlb.invalidations                0 # total number of invalidations
itlb.miss_rate               0.0001 # miss rate (i.e., misses/ref)
itlb.repl_rate               0.0001 # replacement rate (i.e., repls/ref)
itlb.wb_rate                 0.0000 # writeback rate (i.e., wrbks/ref)
itlb.inv_rate                0.0000 # invalidation rate (i.e., invs/ref)
dtlb.accesses              40454453 # total number of accesses
dtlb.hits                  40347237 # total number of hits
dtlb.misses                  107216 # total number of misses
dtlb.replacements            107088 # total number of replacements
dtlb.writebacks                   0 # total number of writebacks
dtlb.invalidations                0 # total number of invalidations
dtlb.miss_rate               0.0027 # miss rate (i.e., misses/ref)
dtlb.repl_rate               0.0026 # replacement rate (i.e., repls/ref)
dtlb.wb_rate                 0.0000 # writeback rate (i.e., wrbks/ref)
dtlb.inv_rate                0.0000 # invalidation rate (i.e., invs/ref)
rename_power           285823525.2396 # total power usage of rename unit
bpred_power            248919855.7384 # total power usage of bpred unit
window_power           3776588500.4200 # total power usage of instruction window
lsq_power              340459745.8492 # total power usage of load/store queue
regfile_power          2196839629.1122 # total power usage of arch. regfile
icache_power           265020289.6920 # total power usage of icache
dcache_power           1125372627.6803 # total power usage of dcache
dcache2_power          271164808.1697 # total power usage of dcache2
alu_power              2903243461.4082 # total power usage of alu
falu_power             2496001165.1560 # total power usage of falu
resultbus_power        2737720333.2918 # total power usage of resultbus
clock_power            5353695679.8542 # total power usage of clock
avg_rename_power             3.2707 # avg power usage of rename unit
avg_bpred_power              2.8484 # avg power usage of bpred unit
avg_window_power            43.2160 # avg power usage of instruction window
avg_lsq_power                3.8959 # avg power usage of lsq
avg_regfile_power           25.1387 # avg power usage of arch. regfile
avg_icache_power             3.0327 # avg power usage of icache
avg_dcache_power            12.8778 # avg power usage of dcache
avg_dcache2_power            3.1030 # avg power usage of dcache2
avg_alu_power               33.2222 # avg power usage of alu
avg_falu_power              28.5621 # avg power usage of falu
avg_resultbus_power         31.3281 # avg power usage of resultbus
avg_clock_power             61.2631 # avg power usage of clock
fetch_stage_power      513940145.4304 # total power usage of fetch stage
dispatch_stage_power   285823525.2396 # total power usage of dispatch stage
issue_stage_power      11154549476.8191 # total power usage of issue stage
avg_fetch_power              5.8811 # average power of fetch unit per cycle
avg_dispatch_power           3.2707 # average power of dispatch unit per cycle
avg_issue_power            127.6431 # average power of issue unit per cycle
total_power            19504848456.4555 # total power per cycle
avg_total_power_cycle      223.1967 # average total power per cycle
avg_total_power_cycle_nofp_nod2     191.5316 # average total power per cycle
avg_total_power_insn       181.1865 # average total power per insn
avg_total_power_insn_nofp_nod2     155.4814 # average total power per insn
rename_power_cc1       65303205.2573 # total power usage of rename unit_cc1
bpred_power_cc1        33031467.5684 # total power usage of bpred unit_cc1
window_power_cc1       1395553233.8406 # total power usage of instruction window_cc1
lsq_power_cc1          41903556.1958 # total power usage of lsq_cc1
regfile_power_cc1      673314328.6879 # total power usage of arch. regfile_cc1
icache_power_cc1       70979987.6294 # total power usage of icache_cc1
dcache_power_cc1       287020422.8022 # total power usage of dcache_cc1
dcache2_power_cc1      3192068.6655 # total power usage of dcache2_cc1
alu_power_cc1          151462550.4348 # total power usage of alu_cc1
resultbus_power_cc1    965419414.5617 # total power usage of resultbus_cc1
clock_power_cc1        1404233273.8206 # total power usage of clock_cc1
avg_rename_power_cc1         0.7473 # avg power usage of rename unit_cc1
avg_bpred_power_cc1          0.3780 # avg power usage of bpred unit_cc1
avg_window_power_cc1        15.9695 # avg power usage of instruction window_cc1
avg_lsq_power_cc1            0.4795 # avg power usage of lsq_cc1
avg_regfile_power_cc1        7.7048 # avg power usage of arch. regfile_cc1
avg_icache_power_cc1         0.8122 # avg power usage of icache_cc1
avg_dcache_power_cc1         3.2844 # avg power usage of dcache_cc1
avg_dcache2_power_cc1        0.0365 # avg power usage of dcache2_cc1
avg_alu_power_cc1            1.7332 # avg power usage of alu_cc1
avg_resultbus_power_cc1      11.0474 # avg power usage of resultbus_cc1
avg_clock_power_cc1         16.0688 # avg power usage of clock_cc1
fetch_stage_power_cc1  104011455.1978 # total power usage of fetch stage_cc1
dispatch_stage_power_cc1 65303205.2573 # total power usage of dispatch stage_cc1
issue_stage_power_cc1  2844551246.5007 # total power usage of issue stage_cc1
avg_fetch_power_cc1          1.1902 # average power of fetch unit per cycle_cc1
avg_dispatch_power_cc1       0.7473 # average power of dispatch unit per cycle_cc1
avg_issue_power_cc1         32.5506 # average power of issue unit per cycle_cc1
total_power_cycle_cc1  5091413509.4643 # total power per cycle_cc1
avg_total_power_cycle_cc1      58.2618 # average total power per cycle_cc1
avg_total_power_insn_cc1      47.2957 # average total power per insn_cc1
rename_power_cc2       22005945.9371 # total power usage of rename unit_cc2
bpred_power_cc2        25087379.2253 # total power usage of bpred unit_cc2
window_power_cc2       416826272.6920 # total power usage of instruction window_cc2
lsq_power_cc2          16477916.7163 # total power usage of lsq_cc2
regfile_power_cc2      62745790.6350 # total power usage of arch. regfile_cc2
icache_power_cc2       70979987.6294 # total power usage of icache_cc2
dcache_power_cc2       129019165.4765 # total power usage of dcache_cc2
dcache2_power_cc2       879394.4776 # total power usage of dcache2_cc2
alu_power_cc2          120634519.1559 # total power usage of alu_cc2
resultbus_power_cc2    205477208.0463 # total power usage of resultbus_cc2
clock_power_cc2        407452122.9110 # total power usage of clock_cc2
avg_rename_power_cc2         0.2518 # avg power usage of rename unit_cc2
avg_bpred_power_cc2          0.2871 # avg power usage of bpred unit_cc2
avg_window_power_cc2         4.7698 # avg power usage of instruction window_cc2
avg_lsq_power_cc2            0.1886 # avg power usage of instruction lsq_cc2
avg_regfile_power_cc2        0.7180 # avg power usage of arch. regfile_cc2
avg_icache_power_cc2         0.8122 # avg power usage of icache_cc2
avg_dcache_power_cc2         1.4764 # avg power usage of dcache_cc2
avg_dcache2_power_cc2        0.0101 # avg power usage of dcache2_cc2
avg_alu_power_cc2            1.3804 # avg power usage of alu_cc2
avg_resultbus_power_cc2       2.3513 # avg power usage of resultbus_cc2
avg_clock_power_cc2          4.6625 # avg power usage of clock_cc2
fetch_stage_power_cc2  96067366.8547 # total power usage of fetch stage_cc2
dispatch_stage_power_cc2 22005945.9371 # total power usage of dispatch stage_cc2
issue_stage_power_cc2  889314476.5646 # total power usage of issue stage_cc2
avg_fetch_power_cc2          1.0993 # average power of fetch unit per cycle_cc2
avg_dispatch_power_cc2       0.2518 # average power of dispatch unit per cycle_cc2
avg_issue_power_cc2         10.1765 # average power of issue unit per cycle_cc2
total_power_cycle_cc2  1477585702.9024 # total power per cycle_cc2
avg_total_power_cycle_cc2      16.9082 # average total power per cycle_cc2
avg_total_power_insn_cc2      13.7257 # average total power per insn_cc2
rename_power_cc3       44057978.0259 # total power usage of rename unit_cc3
bpred_power_cc3        47194545.8060 # total power usage of bpred unit_cc3
window_power_cc3       640054945.8090 # total power usage of instruction window_cc3
lsq_power_cc3          46102909.1560 # total power usage of lsq_cc3
regfile_power_cc3      207827397.1872 # total power usage of arch. regfile_cc3
icache_power_cc3       90384017.9816 # total power usage of icache_cc3
dcache_power_cc3       212894776.7789 # total power usage of dcache_cc3
dcache2_power_cc3      27676672.6566 # total power usage of dcache2_cc3
alu_power_cc3          395812609.7492 # total power usage of alu_cc3
resultbus_power_cc3    376271170.2633 # total power usage of resultbus_cc3
clock_power_cc3        791624112.3942 # total power usage of clock_cc3
avg_rename_power_cc3         0.5042 # avg power usage of rename unit_cc3
avg_bpred_power_cc3          0.5401 # avg power usage of bpred unit_cc3
avg_window_power_cc3         7.3242 # avg power usage of instruction window_cc3
avg_lsq_power_cc3            0.5276 # avg power usage of instruction lsq_cc3
avg_regfile_power_cc3        2.3782 # avg power usage of arch. regfile_cc3
avg_icache_power_cc3         1.0343 # avg power usage of icache_cc3
avg_dcache_power_cc3         2.4362 # avg power usage of dcache_cc3
avg_dcache2_power_cc3        0.3167 # avg power usage of dcache2_cc3
avg_alu_power_cc3            4.5293 # avg power usage of alu_cc3
avg_resultbus_power_cc3       4.3057 # avg power usage of resultbus_cc3
avg_clock_power_cc3          9.0587 # avg power usage of clock_cc3
fetch_stage_power_cc3  137578563.7877 # total power usage of fetch stage_cc3
dispatch_stage_power_cc3 44057978.0259 # total power usage of dispatch stage_cc3
issue_stage_power_cc3  1698813084.4129 # total power usage of issue stage_cc3
avg_fetch_power_cc3          1.5743 # average power of fetch unit per cycle_cc3
avg_dispatch_power_cc3       0.5042 # average power of dispatch unit per cycle_cc3
avg_issue_power_cc3         19.4398 # average power of issue unit per cycle_cc3
total_power_cycle_cc3  2879901135.8080 # total power per cycle_cc3
avg_total_power_cycle_cc3      32.9551 # average total power per cycle_cc3
avg_total_power_insn_cc3      26.7523 # average total power per insn_cc3
total_rename_access       107650699 # total number accesses of rename unit
total_bpred_access         17614915 # total number accesses of bpred unit
total_window_access       402118843 # total number accesses of instruction window
total_lsq_access           41176193 # total number accesses of load/store queue
total_regfile_access      134263525 # total number accesses of arch. regfile
total_icache_access       118083900 # total number accesses of icache
total_dcache_access        40074921 # total number accesses of dcache
total_dcache2_access        1133614 # total number accesses of dcache2
total_alu_access          103333957 # total number accesses of alu
total_resultbus_access    111938139 # total number accesses of resultbus
avg_rename_access            1.2319 # avg number accesses of rename unit
avg_bpred_access             0.2016 # avg number accesses of bpred unit
avg_window_access            4.6015 # avg number accesses of instruction window
avg_lsq_access               0.4712 # avg number accesses of lsq
avg_regfile_access           1.5364 # avg number accesses of arch. regfile
avg_icache_access            1.3513 # avg number accesses of icache
avg_dcache_access            0.4586 # avg number accesses of dcache
avg_dcache2_access           0.0130 # avg number accesses of dcache2
avg_alu_access               1.1825 # avg number accesses of alu
avg_resultbus_access         1.2809 # avg number accesses of resultbus
max_rename_access                16 # max number accesses of rename unit
max_bpred_access                  7 # max number accesses of bpred unit
max_window_access                45 # max number accesses of instruction window
max_lsq_access                    7 # max number accesses of load/store queue
max_regfile_access               30 # max number accesses of arch. regfile
max_icache_access                16 # max number accesses of icache
max_dcache_access                 7 # max number accesses of dcache
max_dcache2_access                6 # max number accesses of dcache2
max_alu_access                    6 # max number accesses of alu
max_resultbus_access             10 # max number accesses of resultbus
max_cycle_power_cc1        170.4744 # maximum cycle power usage of cc1
max_cycle_power_cc2         79.3941 # maximum cycle power usage of cc2
max_cycle_power_cc3         88.1275 # maximum cycle power usage of cc3
sim_invalid_addrs                 0 # total non-speculative bogus addresses seen (debug var)
ld_text_base           0x0120000000 # program text (code) segment base
ld_text_size                 819200 # program text (code) size in bytes
ld_data_base           0x0140000000 # program initialized data segment base
ld_data_size                 118976 # program init'ed `.data' and uninit'ed `.bss' size in bytes
ld_stack_base          0x011ff9b000 # program stack segment base (highest address in stack)
ld_stack_size                 16384 # program initial stack size
ld_prog_entry          0x01200336a8 # program entry point (initial PC)
ld_environ_base        0x011ff96490 # program environment base address address
ld_target_big_endian              0 # target executable endian-ness, non-zero if big endian
mem.page_count                 7515 # total number of pages allocated
mem.page_mem                 60120k # total size of memory pages allocated
mem.ptab_misses               14938 # total first level page table misses
mem.ptab_accesses         832531942 # total page table accesses
mem.ptab_miss_rate           0.0000 # first level page table miss rate

