sim-outorder: SimpleScalar/Alpha Tool Set version 3.0 of August, 2003.
Copyright (c) 1994-2003 by Todd M. Austin, Ph.D. and SimpleScalar, LLC.
All Rights Reserved. This version of SimpleScalar is licensed for academic
non-commercial use.  No portion of this work may be used by any commercial
entity, or for any commercial purpose, without the prior written permission
of SimpleScalar, LLC (info@simplescalar.com).


Processor Parameters:
Issue Width: 16
Window Size: 64
Number of Virtual Registers: 32
Number of Physical Registers: 64
Datapath Width: 64
Total Power Consumption: 225.197
Branch Predictor Power Consumption: 2.84842  (1.28%)
 branch target buffer power (W): 2.49493
 local predict power (W): 0.0867068
 global predict power (W): 0.0996078
 chooser power (W): 0.0702439
 RAS power (W): 0.0969383
Rename Logic Power Consumption: 3.27072  (1.47%)
 Instruction Decode Power (W): 0.0639661
 RAT decode_power (W): 0.454058
 RAT wordline_power (W): 0.227603
 RAT bitline_power (W): 2.30694
 DCL Comparators (W): 0.218151
Instruction Window Power Consumption: 43.216  (19.4%)
 tagdrive (W): 2.9395
 tagmatch (W): 0.989695
 Selection Logic (W): 0.225484
 decode_power (W): 0.976583
 wordline_power (W): 1.0557
 bitline_power (W): 37.0291
Load/Store Queue Power Consumption: 3.89593  (1.75%)
 tagdrive (W): 0.980932
 tagmatch (W): 0.214942
 decode_power (W): 0.0159915
 wordline_power (W): 0.0433172
 bitline_power (W): 2.64075
Arch. Register File Power Consumption: 25.1387  (11.3%)
 decode_power (W): 0.454058
 wordline_power (W): 1.0557
 bitline_power (W): 23.629
Result Bus Power Consumption: 31.3281  (14%)
Total Clock Power: 61.2631  (27.4%)
Int ALU Power: 4.66013  (2.09%)
FP ALU Power: 28.5621  (12.8%)
Instruction Cache Power Consumption: 2.76773  (1.24%)
 decode_power (W): 0.151353
 wordline_power (W): 0.180479
 bitline_power (W): 1.42251
 senseamp_power (W): 0.768
 tagarray_power (W): 0.245382
Itlb_power (W): 0.264936 (0.119%)
Data Cache Power Consumption: 11.0709  (4.96%)
 decode_power (W): 0.60541
 wordline_power (W): 0.721917
 bitline_power (W): 5.69006
 senseamp_power (W): 3.072
 tagarray_power (W): 0.981529
Dtlb_power (W): 1.80688 (0.81%)
Level 2 Cache Power Consumption: 3.10298 (1.39%)
 decode_power (W): 0.19487
 wordline_power (W): 0.0430878
 bitline_power (W): 1.77274
 senseamp_power (W): 0.192
 tagarray_power (W): 0.900275
sim: loading EIO file: ../benchmarks/301.apsi.spec_ref.eio.gz
sim: command line: ./sim-outorder -config ../configs/current.config ../benchmarks/301.apsi.spec_ref.eio.gz 

sim: simulation started @ Tue Nov 24 11:32:17 2015, options follow:

sim-outorder: This simulator implements a very detailed out-of-order issue
superscalar processor with a two-level memory system and speculative
execution support.  This simulator is a performance simulator, tracking the
latency of all pipeline operations.

# -config                     # load configuration from a file
# -dumpconfig                 # dump configuration to a file
# -h                    false # print help message    
# -v                    false # verbose operation     
# -d                    false # enable debug message  
# -i                    false # start in Dlite debugger
-seed                       1 # random number generator seed (0 for timer seed)
# -q                    false # initialize and terminate immediately
# -chkpt               <null> # restore EIO trace execution from <fname>
# -redir:sim     ../results/21_20_matt/301.apsi.spec_ref.eio.gz.out # redirect simulator output to file (non-interactive only)
# -redir:prog       /dev/null # redirect simulated program output to file
-nice                       0 # simulator scheduling priority
-freq            600000000.0000 # frequency             
-max:inst           100000000 # maximum number of inst's to execute
-fastfwd                    0 # number of insts skipped before timing starts
# -ptrace              <null> # generate pipetrace, i.e., <fname|stdout|stderr> <range>
-fetch:ifqsize             16 # instruction fetch queue size (in insts)
-fetch:mplat               15 # extra branch mis-prediction latency
-fetch:speed                1 # speed of front-end of machine relative to execution core
-bpred                   2lev # branch predictor type {nottaken|taken|perfect|bimod|2lev|comb}
-bpred:bimod     2048 # bimodal predictor config (<table size>)
-bpred:2lev      1 1024 4 0 # 2-level predictor config (<l1size> <l2size> <hist_size> <xor>)
-bpred:comb      1024 # combining predictor config (<meta_table_size>)
-bpred:ras                  8 # return address stack size (0 for no return stack)
-bpred:btb       512 4 # BTB config (<num_sets> <associativity>)
# -bpred:spec_update       <null> # speculative predictors update in {ID|WB} (default non-spec)
-decode:width              16 # instruction decode B/W (insts/cycle)
-issue:width               16 # instruction issue B/W (insts/cycle)
-issue:inorder          false # run pipeline with in-order issue
-issue:wrongpath         true # issue instructions down wrong execution paths
-commit:width              16 # instruction commit B/W (insts/cycle)
-ruu:size                  64 # register update unit (RUU) size
-lsq:size                   8 # load/store queue (LSQ) size
-cache:dl1       dl1:32:64:8:f # l1 data cache config, i.e., {<config>|none}
-cache:dl1lat               1 # l1 data cache hit latency (in cycles)
-cache:dl2       dl2:256:64:8:f # l2 data cache config, i.e., {<config>|none}
-cache:dl2lat               2 # l2 data cache hit latency (in cycles)
-cache:il1       il1:32:64:8:f # l1 inst cache config, i.e., {<config>|dl1|dl2|none}
-cache:il1lat               1 # l1 instruction cache hit latency (in cycles)
-cache:il2                dl2 # l2 instruction cache config, i.e., {<config>|dl2|none}
-cache:il2lat               2 # l2 instruction cache hit latency (in cycles)
-cache:flush            false # flush caches on system calls
-cache:icompress        false # convert 64-bit inst addresses to 32-bit inst equivalents
-mem:lat         103 1 # memory access latency (<first_chunk> <inter_chunk>)
-mem:width                  8 # memory access bus width (in bytes)
-tlb:itlb        itlb:16:4096:4:l # instruction TLB config, i.e., {<config>|none}
-tlb:dtlb        dtlb:32:4096:4:l # data TLB config, i.e., {<config>|none}
-tlb:lat                   30 # inst/data TLB miss latency (in cycles)
-res:ialu                   4 # total number of integer ALU's available
-res:imult                  2 # total number of integer multiplier/dividers available
-res:memport                4 # total number of memory system ports available (to CPU)
-res:fpalu                  8 # total number of floating point ALU's available
-res:fpmult                 2 # total number of floating point multiplier/dividers available
# -pcstat              <null> # profile stat(s) against text addr's (mult uses ok)
-bugcompat              false # operate in backward-compatible bugs mode (for testing only)

  Pipetrace range arguments are formatted as follows:

    {{@|#}<start>}:{{@|#|+}<end>}

  Both ends of the range are optional, if neither are specified, the entire
  execution is traced.  Ranges that start with a `@' designate an address
  range to be traced, those that start with an `#' designate a cycle count
  range.  All other range values represent an instruction count range.  The
  second argument, if specified with a `+', indicates a value relative
  to the first argument, e.g., 1000:+100 == 1000:1100.  Program symbols may
  be used in all contexts.

    Examples:   -ptrace FOO.trc #0:#1000
                -ptrace BAR.trc @2000:
                -ptrace BLAH.trc :1500
                -ptrace UXXE.trc :
                -ptrace FOOBAR.trc @main:+278

  Branch predictor configuration examples for 2-level predictor:
    Configurations:   N, M, W, X
      N   # entries in first level (# of shift register(s))
      W   width of shift register(s)
      M   # entries in 2nd level (# of counters, or other FSM)
      X   (yes-1/no-0) xor history and address for 2nd level index
    Sample predictors:
      GAg     : 1, W, 2^W, 0
      GAp     : 1, W, M (M > 2^W), 0
      PAg     : N, W, 2^W, 0
      PAp     : N, W, M (M == 2^(N+W)), 0
      gshare  : 1, W, 2^W, 1
  Predictor `comb' combines a bimodal and a 2-level predictor.

  The cache config parameter <config> has the following format:

    <name>:<nsets>:<bsize>:<assoc>:<repl>

    <name>   - name of the cache being defined
    <nsets>  - number of sets in the cache
    <bsize>  - block size of the cache
    <assoc>  - associativity of the cache
    <repl>   - block replacement strategy, 'l'-LRU, 'f'-FIFO, 'r'-random

    Examples:   -cache:dl1 dl1:4096:32:1:l
                -dtlb dtlb:128:4096:32:r

  Cache levels can be unified by pointing a level of the instruction cache
  hierarchy at the data cache hiearchy using the "dl1" and "dl2" cache
  configuration arguments.  Most sensible combinations are supported, e.g.,

    A unified l2 cache (il2 is pointed at dl2):
      -cache:il1 il1:128:64:1:l -cache:il2 dl2
      -cache:dl1 dl1:256:32:1:l -cache:dl2 ul2:1024:64:2:l

    Or, a fully unified cache hierarchy (il1 pointed at dl1):
      -cache:il1 dl1
      -cache:dl1 ul1:256:32:1:l -cache:dl2 ul2:1024:64:2:l



sim: ** starting performance simulation **

sim: ** simulation statistics **
sim_num_insn              100000004 # total number of instructions committed
sim_num_refs               38515085 # total number of loads and stores committed
sim_num_loads              24377603 # total number of loads committed
sim_num_stores         14137482.0000 # total number of stores committed
sim_num_branches            3576282 # total number of branches committed
sim_elapsed_time                106 # total simulation time in seconds
sim_inst_rate           943396.2642 # simulation speed (in insts/sec)
sim_total_insn            103609323 # total number of instructions executed
sim_total_refs             40024122 # total number of loads and stores executed
sim_total_loads            25724494 # total number of loads executed
sim_total_stores       14299628.0000 # total number of stores executed
sim_total_branches          3849858 # total number of branches executed
sim_cycle                  45838810 # total simulation time in cycles
sim_IPC                      2.1816 # instructions per cycle
sim_CPI                      0.4584 # cycles per instruction
sim_exec_BW                  2.2603 # total instructions (mis-spec + committed) per cycle
sim_IPB                     27.9620 # instruction per branch
IFQ_count                 528772287 # cumulative IFQ occupancy
IFQ_fcount                 30340733 # cumulative IFQ full count
ifq_occupancy               11.5355 # avg IFQ occupancy (insn's)
ifq_rate                     2.2603 # avg IFQ dispatch rate (insn/cycle)
ifq_latency                  5.1035 # avg IFQ occupant latency (cycle's)
ifq_full                     0.6619 # fraction of time (cycle's) IFQ was full
RUU_count                 756547624 # cumulative RUU occupancy
RUU_fcount                   806698 # cumulative RUU full count
ruu_occupancy               16.5045 # avg RUU occupancy (insn's)
ruu_rate                     2.2603 # avg RUU dispatch rate (insn/cycle)
ruu_latency                  7.3019 # avg RUU occupant latency (cycle's)
ruu_full                     0.0176 # fraction of time (cycle's) RUU was full
LSQ_count                 273954893 # cumulative LSQ occupancy
LSQ_fcount                 31270172 # cumulative LSQ full count
lsq_occupancy                5.9765 # avg LSQ occupancy (insn's)
lsq_rate                     2.2603 # avg LSQ dispatch rate (insn/cycle)
lsq_latency                  2.6441 # avg LSQ occupant latency (cycle's)
lsq_full                     0.6822 # fraction of time (cycle's) LSQ was full
sim_slip                 1156112551 # total number of slip cycles
avg_sim_slip                11.5611 # the average slip between issue and retirement
bpred_2lev.lookups          4256784 # total number of bpred lookups
bpred_2lev.updates          3576281 # total number of updates
bpred_2lev.addr_hits        3087183 # total number of address-predicted hits
bpred_2lev.dir_hits         3087236 # total number of direction-predicted hits (includes addr-hits)
bpred_2lev.misses            489045 # total number of misses
bpred_2lev.jr_hits            56796 # total number of address-predicted hits for JR's
bpred_2lev.jr_seen            56799 # total number of JR's seen
bpred_2lev.jr_non_ras_hits.PP            0 # total number of address-predicted hits for non-RAS JR's
bpred_2lev.jr_non_ras_seen.PP            0 # total number of non-RAS JR's seen
bpred_2lev.bpred_addr_rate    0.8632 # branch address-prediction rate (i.e., addr-hits/updates)
bpred_2lev.bpred_dir_rate    0.8633 # branch direction-prediction rate (i.e., all-hits/updates)
bpred_2lev.bpred_jr_rate    0.9999 # JR address-prediction rate (i.e., JR addr-hits/JRs seen)
bpred_2lev.bpred_jr_non_ras_rate.PP <error: divide by zero> # non-RAS JR addr-pred rate (ie, non-RAS JR hits/JRs seen)
bpred_2lev.retstack_pushes        62416 # total number of address pushed onto ret-addr stack
bpred_2lev.retstack_pops        60389 # total number of address popped off of ret-addr stack
bpred_2lev.used_ras.PP        56799 # total number of RAS predictions used
bpred_2lev.ras_hits.PP        56796 # total number of RAS hits
bpred_2lev.ras_rate.PP    0.9999 # RAS prediction rate (i.e., RAS hits/used RAS)
il1.accesses              110422969 # total number of accesses
il1.hits                  108852003 # total number of hits
il1.misses                  1570966 # total number of misses
il1.replacements            1570710 # total number of replacements
il1.writebacks                    0 # total number of writebacks
il1.invalidations                 0 # total number of invalidations
il1.miss_rate                0.0142 # miss rate (i.e., misses/ref)
il1.repl_rate                0.0142 # replacement rate (i.e., repls/ref)
il1.wb_rate                  0.0000 # writeback rate (i.e., wrbks/ref)
il1.inv_rate                 0.0000 # invalidation rate (i.e., invs/ref)
dl1.accesses               38631959 # total number of accesses
dl1.hits                   37769180 # total number of hits
dl1.misses                   862779 # total number of misses
dl1.replacements             862523 # total number of replacements
dl1.writebacks               558478 # total number of writebacks
dl1.invalidations                 0 # total number of invalidations
dl1.miss_rate                0.0223 # miss rate (i.e., misses/ref)
dl1.repl_rate                0.0223 # replacement rate (i.e., repls/ref)
dl1.wb_rate                  0.0145 # writeback rate (i.e., wrbks/ref)
dl1.inv_rate                 0.0000 # invalidation rate (i.e., invs/ref)
dl2.accesses                2992223 # total number of accesses
dl2.hits                    2852860 # total number of hits
dl2.misses                   139363 # total number of misses
dl2.replacements             137315 # total number of replacements
dl2.writebacks               105659 # total number of writebacks
dl2.invalidations                 0 # total number of invalidations
dl2.miss_rate                0.0466 # miss rate (i.e., misses/ref)
dl2.repl_rate                0.0459 # replacement rate (i.e., repls/ref)
dl2.wb_rate                  0.0353 # writeback rate (i.e., wrbks/ref)
dl2.inv_rate                 0.0000 # invalidation rate (i.e., invs/ref)
itlb.accesses             110422969 # total number of accesses
itlb.hits                 110422945 # total number of hits
itlb.misses                      24 # total number of misses
itlb.replacements                 0 # total number of replacements
itlb.writebacks                   0 # total number of writebacks
itlb.invalidations                0 # total number of invalidations
itlb.miss_rate               0.0000 # miss rate (i.e., misses/ref)
itlb.repl_rate               0.0000 # replacement rate (i.e., repls/ref)
itlb.wb_rate                 0.0000 # writeback rate (i.e., wrbks/ref)
itlb.inv_rate                0.0000 # invalidation rate (i.e., invs/ref)
dtlb.accesses              38716835 # total number of accesses
dtlb.hits                  38715573 # total number of hits
dtlb.misses                    1262 # total number of misses
dtlb.replacements              1134 # total number of replacements
dtlb.writebacks                   0 # total number of writebacks
dtlb.invalidations                0 # total number of invalidations
dtlb.miss_rate               0.0000 # miss rate (i.e., misses/ref)
dtlb.repl_rate               0.0000 # replacement rate (i.e., repls/ref)
dtlb.wb_rate                 0.0000 # writeback rate (i.e., wrbks/ref)
dtlb.inv_rate                0.0000 # invalidation rate (i.e., invs/ref)
rename_power           149925844.7128 # total power usage of rename unit
bpred_power            130568397.3474 # total power usage of bpred unit
window_power           1980971371.2133 # total power usage of instruction window
lsq_power              178584722.3128 # total power usage of load/store queue
regfile_power          1152330049.5863 # total power usage of arch. regfile
icache_power           139013717.7500 # total power usage of icache
dcache_power           590302849.5142 # total power usage of dcache
dcache2_power          142236762.5961 # total power usage of dcache2
alu_power              1522867046.6998 # total power usage of alu
falu_power             1309252212.7687 # total power usage of falu
resultbus_power        1436043564.1585 # total power usage of resultbus
clock_power            2808227023.8718 # total power usage of clock
avg_rename_power             3.2707 # avg power usage of rename unit
avg_bpred_power              2.8484 # avg power usage of bpred unit
avg_window_power            43.2160 # avg power usage of instruction window
avg_lsq_power                3.8959 # avg power usage of lsq
avg_regfile_power           25.1387 # avg power usage of arch. regfile
avg_icache_power             3.0327 # avg power usage of icache
avg_dcache_power            12.8778 # avg power usage of dcache
avg_dcache2_power            3.1030 # avg power usage of dcache2
avg_alu_power               33.2222 # avg power usage of alu
avg_falu_power              28.5621 # avg power usage of falu
avg_resultbus_power         31.3281 # avg power usage of resultbus
avg_clock_power             61.2631 # avg power usage of clock
fetch_stage_power      269582115.0974 # total power usage of fetch stage
dispatch_stage_power   149925844.7128 # total power usage of dispatch stage
issue_stage_power      5851006316.4947 # total power usage of issue stage
avg_fetch_power              5.8811 # average power of fetch unit per cycle
avg_dispatch_power           3.2707 # average power of dispatch unit per cycle
avg_issue_power            127.6431 # average power of issue unit per cycle
total_power            10231071349.7629 # total power per cycle
avg_total_power_cycle      223.1967 # average total power per cycle
avg_total_power_cycle_nofp_nod2     191.5316 # average total power per cycle
avg_total_power_insn        98.7466 # average total power per insn
avg_total_power_insn_nofp_nod2      84.7374 # average total power per insn
rename_power_cc1       57060271.7521 # total power usage of rename unit_cc1
bpred_power_cc1        8617191.0367 # total power usage of bpred unit_cc1
window_power_cc1       1281131293.0793 # total power usage of instruction window_cc1
lsq_power_cc1          39031129.0377 # total power usage of lsq_cc1
regfile_power_cc1      554882311.2796 # total power usage of arch. regfile_cc1
icache_power_cc1       56033890.3269 # total power usage of icache_cc1
dcache_power_cc1       255829621.5091 # total power usage of dcache_cc1
dcache2_power_cc1      7279522.2234 # total power usage of dcache2_cc1
alu_power_cc1          409900695.5997 # total power usage of alu_cc1
resultbus_power_cc1    891046134.0814 # total power usage of resultbus_cc1
clock_power_cc1        1362379829.8283 # total power usage of clock_cc1
avg_rename_power_cc1         1.2448 # avg power usage of rename unit_cc1
avg_bpred_power_cc1          0.1880 # avg power usage of bpred unit_cc1
avg_window_power_cc1        27.9486 # avg power usage of instruction window_cc1
avg_lsq_power_cc1            0.8515 # avg power usage of lsq_cc1
avg_regfile_power_cc1       12.1051 # avg power usage of arch. regfile_cc1
avg_icache_power_cc1         1.2224 # avg power usage of icache_cc1
avg_dcache_power_cc1         5.5811 # avg power usage of dcache_cc1
avg_dcache2_power_cc1        0.1588 # avg power usage of dcache2_cc1
avg_alu_power_cc1            8.9422 # avg power usage of alu_cc1
avg_resultbus_power_cc1      19.4387 # avg power usage of resultbus_cc1
avg_clock_power_cc1         29.7211 # avg power usage of clock_cc1
fetch_stage_power_cc1  64651081.3636 # total power usage of fetch stage_cc1
dispatch_stage_power_cc1 57060271.7521 # total power usage of dispatch stage_cc1
issue_stage_power_cc1  2884218395.5306 # total power usage of issue stage_cc1
avg_fetch_power_cc1          1.4104 # average power of fetch unit per cycle_cc1
avg_dispatch_power_cc1       1.2448 # average power of dispatch unit per cycle_cc1
avg_issue_power_cc1         62.9209 # average power of issue unit per cycle_cc1
total_power_cycle_cc1  4923191889.7542 # total power per cycle_cc1
avg_total_power_cycle_cc1     107.4023 # average total power per cycle_cc1
avg_total_power_insn_cc1      47.5169 # average total power per insn_cc1
rename_power_cc2       21179808.2288 # total power usage of rename unit_cc2
bpred_power_cc2        5093383.5138 # total power usage of bpred unit_cc2
window_power_cc2       410780912.7783 # total power usage of instruction window_cc2
lsq_power_cc2          15799311.7257 # total power usage of lsq_cc2
regfile_power_cc2      85928553.7877 # total power usage of arch. regfile_cc2
icache_power_cc2       56033890.3269 # total power usage of icache_cc2
dcache_power_cc2       124373622.8677 # total power usage of dcache_cc2
dcache2_power_cc2      2321199.6165 # total power usage of dcache2_cc2
alu_power_cc2          169762030.8265 # total power usage of alu_cc2
resultbus_power_cc2    224029233.8101 # total power usage of resultbus_cc2
clock_power_cc2        426686932.2573 # total power usage of clock_cc2
avg_rename_power_cc2         0.4620 # avg power usage of rename unit_cc2
avg_bpred_power_cc2          0.1111 # avg power usage of bpred unit_cc2
avg_window_power_cc2         8.9614 # avg power usage of instruction window_cc2
avg_lsq_power_cc2            0.3447 # avg power usage of instruction lsq_cc2
avg_regfile_power_cc2        1.8746 # avg power usage of arch. regfile_cc2
avg_icache_power_cc2         1.2224 # avg power usage of icache_cc2
avg_dcache_power_cc2         2.7133 # avg power usage of dcache_cc2
avg_dcache2_power_cc2        0.0506 # avg power usage of dcache2_cc2
avg_alu_power_cc2            3.7035 # avg power usage of alu_cc2
avg_resultbus_power_cc2       4.8873 # avg power usage of resultbus_cc2
avg_clock_power_cc2          9.3084 # avg power usage of clock_cc2
fetch_stage_power_cc2  61127273.8407 # total power usage of fetch stage_cc2
dispatch_stage_power_cc2 21179808.2288 # total power usage of dispatch stage_cc2
issue_stage_power_cc2  947066311.6247 # total power usage of issue stage_cc2
avg_fetch_power_cc2          1.3335 # average power of fetch unit per cycle_cc2
avg_dispatch_power_cc2       0.4620 # average power of dispatch unit per cycle_cc2
avg_issue_power_cc2         20.6608 # average power of issue unit per cycle_cc2
total_power_cycle_cc2  1541988879.7392 # total power per cycle_cc2
avg_total_power_cycle_cc2      33.6394 # average total power per cycle_cc2
avg_total_power_insn_cc2      14.8827 # average total power per insn_cc2
rename_power_cc3       30466365.5573 # total power usage of rename unit_cc3
bpred_power_cc3        17319654.2217 # total power usage of bpred unit_cc3
window_power_cc3       467393417.9395 # total power usage of instruction window_cc3
lsq_power_cc3          29465727.5922 # total power usage of lsq_cc3
regfile_power_cc3      139496532.0988 # total power usage of arch. regfile_cc3
icache_power_cc3       64331873.1043 # total power usage of icache_cc3
dcache_power_cc3       158016172.4125 # total power usage of dcache_cc3
dcache2_power_cc3      15817910.1801 # total power usage of dcache2_cc3
alu_power_cc3          281058665.7228 # total power usage of alu_cc3
resultbus_power_cc3    272588668.9908 # total power usage of resultbus_cc3
clock_power_cc3        561476480.3721 # total power usage of clock_cc3
avg_rename_power_cc3         0.6646 # avg power usage of rename unit_cc3
avg_bpred_power_cc3          0.3778 # avg power usage of bpred unit_cc3
avg_window_power_cc3        10.1965 # avg power usage of instruction window_cc3
avg_lsq_power_cc3            0.6428 # avg power usage of instruction lsq_cc3
avg_regfile_power_cc3        3.0432 # avg power usage of arch. regfile_cc3
avg_icache_power_cc3         1.4034 # avg power usage of icache_cc3
avg_dcache_power_cc3         3.4472 # avg power usage of dcache_cc3
avg_dcache2_power_cc3        0.3451 # avg power usage of dcache2_cc3
avg_alu_power_cc3            6.1315 # avg power usage of alu_cc3
avg_resultbus_power_cc3       5.9467 # avg power usage of resultbus_cc3
avg_clock_power_cc3         12.2489 # avg power usage of clock_cc3
fetch_stage_power_cc3  81651527.3260 # total power usage of fetch stage_cc3
dispatch_stage_power_cc3 30466365.5573 # total power usage of dispatch stage_cc3
issue_stage_power_cc3  1224340562.8379 # total power usage of issue stage_cc3
avg_fetch_power_cc3          1.7813 # average power of fetch unit per cycle_cc3
avg_dispatch_power_cc3       0.6646 # average power of dispatch unit per cycle_cc3
avg_issue_power_cc3         26.7097 # average power of issue unit per cycle_cc3
total_power_cycle_cc3  2037431468.1922 # total power per cycle_cc3
avg_total_power_cycle_cc3      44.4477 # average total power per cycle_cc3
avg_total_power_insn_cc3      19.6646 # average total power per insn_cc3
total_rename_access       103609323 # total number accesses of rename unit
total_bpred_access          3576281 # total number accesses of bpred unit
total_window_access       394240570 # total number accesses of instruction window
total_lsq_access           38801791 # total number accesses of load/store queue
total_regfile_access      184558933 # total number accesses of arch. regfile
total_icache_access       111421481 # total number accesses of icache
total_dcache_access        38631959 # total number accesses of dcache
total_dcache2_access        2992223 # total number accesses of dcache2
total_alu_access          101015997 # total number accesses of alu
total_resultbus_access    122044755 # total number accesses of resultbus
avg_rename_access            2.2603 # avg number accesses of rename unit
avg_bpred_access             0.0780 # avg number accesses of bpred unit
avg_window_access            8.6006 # avg number accesses of instruction window
avg_lsq_access               0.8465 # avg number accesses of lsq
avg_regfile_access           4.0263 # avg number accesses of arch. regfile
avg_icache_access            2.4307 # avg number accesses of icache
avg_dcache_access            0.8428 # avg number accesses of dcache
avg_dcache2_access           0.0653 # avg number accesses of dcache2
avg_alu_access               2.2037 # avg number accesses of alu
avg_resultbus_access         2.6625 # avg number accesses of resultbus
max_rename_access                16 # max number accesses of rename unit
max_bpred_access                  4 # max number accesses of bpred unit
max_window_access                40 # max number accesses of instruction window
max_lsq_access                    8 # max number accesses of load/store queue
max_regfile_access               45 # max number accesses of arch. regfile
max_icache_access                16 # max number accesses of icache
max_dcache_access                 8 # max number accesses of dcache
max_dcache2_access                8 # max number accesses of dcache2
max_alu_access                   14 # max number accesses of alu
max_resultbus_access             14 # max number accesses of resultbus
max_cycle_power_cc1        182.9552 # maximum cycle power usage of cc1
max_cycle_power_cc2        104.5910 # maximum cycle power usage of cc2
max_cycle_power_cc3        109.4692 # maximum cycle power usage of cc3
sim_invalid_addrs                 0 # total non-speculative bogus addresses seen (debug var)
ld_text_base           0x0120000000 # program text (code) segment base
ld_text_size                1114112 # program text (code) size in bytes
ld_data_base           0x0140000000 # program initialized data segment base
ld_data_size              200219296 # program init'ed `.data' and uninit'ed `.bss' size in bytes
ld_stack_base          0x011ff9b000 # program stack segment base (highest address in stack)
ld_stack_size                 16384 # program initial stack size
ld_prog_entry          0x01200603e8 # program entry point (initial PC)
ld_environ_base        0x011ff96500 # program environment base address address
ld_target_big_endian              0 # target executable endian-ness, non-zero if big endian
mem.page_count                24583 # total number of pages allocated
mem.page_mem                196664k # total size of memory pages allocated
mem.ptab_misses               24605 # total first level page table misses
mem.ptab_accesses        1219735134 # total page table accesses
mem.ptab_miss_rate           0.0000 # first level page table miss rate

