sim-outorder: SimpleScalar/Alpha Tool Set version 3.0 of August, 2003.
Copyright (c) 1994-2003 by Todd M. Austin, Ph.D. and SimpleScalar, LLC.
All Rights Reserved. This version of SimpleScalar is licensed for academic
non-commercial use.  No portion of this work may be used by any commercial
entity, or for any commercial purpose, without the prior written permission
of SimpleScalar, LLC (info@simplescalar.com).


Processor Parameters:
Issue Width: 4
Window Size: 64
Number of Virtual Registers: 32
Number of Physical Registers: 64
Datapath Width: 64
Total Power Consumption: 81.4044
Branch Predictor Power Consumption: 3.33649  (4.2%)
 branch target buffer power (W): 2.49493
 local predict power (W): 0.574771
 global predict power (W): 0.0996078
 chooser power (W): 0.0702439
 RAS power (W): 0.0969383
Rename Logic Power Consumption: 0.550645  (0.693%)
 Instruction Decode Power (W): 0.0159915
 RAT decode_power (W): 0.113514
 RAT wordline_power (W): 0.0400762
 RAT bitline_power (W): 0.370156
 DCL Comparators (W): 0.0109075
Instruction Window Power Consumption: 5.85882  (7.38%)
 tagdrive (W): 0.431765
 tagmatch (W): 0.187578
 Selection Logic (W): 0.0563711
 decode_power (W): 0.244146
 wordline_power (W): 0.0844643
 bitline_power (W): 4.85449
Load/Store Queue Power Consumption: 1.62318  (2.04%)
 tagdrive (W): 0.457232
 tagmatch (W): 0.100774
 decode_power (W): 0.00799577
 wordline_power (W): 0.0150119
 bitline_power (W): 1.04217
Arch. Register File Power Consumption: 3.57247  (4.5%)
 decode_power (W): 0.113514
 wordline_power (W): 0.0844643
 bitline_power (W): 3.37449
Result Bus Power Consumption: 3.64461  (4.59%)
Total Clock Power: 29.3028  (36.9%)
Int ALU Power: 4.66013  (5.87%)
FP ALU Power: 14.281  (18%)
Instruction Cache Power Consumption: 2.76773  (3.49%)
 decode_power (W): 0.151353
 wordline_power (W): 0.180479
 bitline_power (W): 1.42251
 senseamp_power (W): 0.768
 tagarray_power (W): 0.245382
Itlb_power (W): 0.264834 (0.334%)
Data Cache Power Consumption: 5.53546  (6.97%)
 decode_power (W): 0.302705
 wordline_power (W): 0.360958
 bitline_power (W): 2.84503
 senseamp_power (W): 1.536
 tagarray_power (W): 0.490764
Dtlb_power (W): 0.903238 (1.14%)
Level 2 Cache Power Consumption: 3.10298 (3.91%)
 decode_power (W): 0.19487
 wordline_power (W): 0.0430878
 bitline_power (W): 1.77274
 senseamp_power (W): 0.192
 tagarray_power (W): 0.900275
sim: loading EIO file: ../benchmarks/164.gzip.program-ref.eio.gz
sim: command line: ./sim-outorder -config ../configs/current.config ../benchmarks/164.gzip.program-ref.eio.gz 

sim: simulation started @ Tue Nov 24 10:28:21 2015, options follow:

sim-outorder: This simulator implements a very detailed out-of-order issue
superscalar processor with a two-level memory system and speculative
execution support.  This simulator is a performance simulator, tracking the
latency of all pipeline operations.

# -config                     # load configuration from a file
# -dumpconfig                 # dump configuration to a file
# -h                    false # print help message    
# -v                    false # verbose operation     
# -d                    false # enable debug message  
# -i                    false # start in Dlite debugger
-seed                       1 # random number generator seed (0 for timer seed)
# -q                    false # initialize and terminate immediately
# -chkpt               <null> # restore EIO trace execution from <fname>
# -redir:sim     ../results/17_15_ruu/164.gzip.program-ref.eio.gz.out # redirect simulator output to file (non-interactive only)
# -redir:prog       /dev/null # redirect simulated program output to file
-nice                       0 # simulator scheduling priority
-freq            600000000.0000 # frequency             
-max:inst           100000000 # maximum number of inst's to execute
-fastfwd                    0 # number of insts skipped before timing starts
# -ptrace              <null> # generate pipetrace, i.e., <fname|stdout|stderr> <range>
-fetch:ifqsize              4 # instruction fetch queue size (in insts)
-fetch:mplat               15 # extra branch mis-prediction latency
-fetch:speed                1 # speed of front-end of machine relative to execution core
-bpred                perfect # branch predictor type {nottaken|taken|perfect|bimod|2lev|comb}
-bpred:bimod     2048 # bimodal predictor config (<table size>)
-bpred:2lev      1 16384 4 0 # 2-level predictor config (<l1size> <l2size> <hist_size> <xor>)
-bpred:comb      1024 # combining predictor config (<meta_table_size>)
-bpred:ras                  8 # return address stack size (0 for no return stack)
-bpred:btb       512 4 # BTB config (<num_sets> <associativity>)
# -bpred:spec_update       <null> # speculative predictors update in {ID|WB} (default non-spec)
-decode:width               4 # instruction decode B/W (insts/cycle)
-issue:width                4 # instruction issue B/W (insts/cycle)
-issue:inorder          false # run pipeline with in-order issue
-issue:wrongpath         true # issue instructions down wrong execution paths
-commit:width               4 # instruction commit B/W (insts/cycle)
-ruu:size                  64 # register update unit (RUU) size
-lsq:size                   8 # load/store queue (LSQ) size
-cache:dl1       dl1:32:64:8:f # l1 data cache config, i.e., {<config>|none}
-cache:dl1lat               1 # l1 data cache hit latency (in cycles)
-cache:dl2       dl2:256:64:8:f # l2 data cache config, i.e., {<config>|none}
-cache:dl2lat               2 # l2 data cache hit latency (in cycles)
-cache:il1       il1:32:64:8:f # l1 inst cache config, i.e., {<config>|dl1|dl2|none}
-cache:il1lat               1 # l1 instruction cache hit latency (in cycles)
-cache:il2                dl2 # l2 instruction cache config, i.e., {<config>|dl2|none}
-cache:il2lat               2 # l2 instruction cache hit latency (in cycles)
-cache:flush            false # flush caches on system calls
-cache:icompress        false # convert 64-bit inst addresses to 32-bit inst equivalents
-mem:lat         103 1 # memory access latency (<first_chunk> <inter_chunk>)
-mem:width                  8 # memory access bus width (in bytes)
-tlb:itlb        itlb:16:4096:4:l # instruction TLB config, i.e., {<config>|none}
-tlb:dtlb        dtlb:32:4096:4:l # data TLB config, i.e., {<config>|none}
-tlb:lat                   30 # inst/data TLB miss latency (in cycles)
-res:ialu                   4 # total number of integer ALU's available
-res:imult                  1 # total number of integer multiplier/dividers available
-res:memport                2 # total number of memory system ports available (to CPU)
-res:fpalu                  4 # total number of floating point ALU's available
-res:fpmult                 1 # total number of floating point multiplier/dividers available
# -pcstat              <null> # profile stat(s) against text addr's (mult uses ok)
-bugcompat              false # operate in backward-compatible bugs mode (for testing only)

  Pipetrace range arguments are formatted as follows:

    {{@|#}<start>}:{{@|#|+}<end>}

  Both ends of the range are optional, if neither are specified, the entire
  execution is traced.  Ranges that start with a `@' designate an address
  range to be traced, those that start with an `#' designate a cycle count
  range.  All other range values represent an instruction count range.  The
  second argument, if specified with a `+', indicates a value relative
  to the first argument, e.g., 1000:+100 == 1000:1100.  Program symbols may
  be used in all contexts.

    Examples:   -ptrace FOO.trc #0:#1000
                -ptrace BAR.trc @2000:
                -ptrace BLAH.trc :1500
                -ptrace UXXE.trc :
                -ptrace FOOBAR.trc @main:+278

  Branch predictor configuration examples for 2-level predictor:
    Configurations:   N, M, W, X
      N   # entries in first level (# of shift register(s))
      W   width of shift register(s)
      M   # entries in 2nd level (# of counters, or other FSM)
      X   (yes-1/no-0) xor history and address for 2nd level index
    Sample predictors:
      GAg     : 1, W, 2^W, 0
      GAp     : 1, W, M (M > 2^W), 0
      PAg     : N, W, 2^W, 0
      PAp     : N, W, M (M == 2^(N+W)), 0
      gshare  : 1, W, 2^W, 1
  Predictor `comb' combines a bimodal and a 2-level predictor.

  The cache config parameter <config> has the following format:

    <name>:<nsets>:<bsize>:<assoc>:<repl>

    <name>   - name of the cache being defined
    <nsets>  - number of sets in the cache
    <bsize>  - block size of the cache
    <assoc>  - associativity of the cache
    <repl>   - block replacement strategy, 'l'-LRU, 'f'-FIFO, 'r'-random

    Examples:   -cache:dl1 dl1:4096:32:1:l
                -dtlb dtlb:128:4096:32:r

  Cache levels can be unified by pointing a level of the instruction cache
  hierarchy at the data cache hiearchy using the "dl1" and "dl2" cache
  configuration arguments.  Most sensible combinations are supported, e.g.,

    A unified l2 cache (il2 is pointed at dl2):
      -cache:il1 il1:128:64:1:l -cache:il2 dl2
      -cache:dl1 dl1:256:32:1:l -cache:dl2 ul2:1024:64:2:l

    Or, a fully unified cache hierarchy (il1 pointed at dl1):
      -cache:il1 dl1
      -cache:dl1 ul1:256:32:1:l -cache:dl2 ul2:1024:64:2:l



sim: ** starting performance simulation **

sim: ** simulation statistics **
sim_num_insn              100000001 # total number of instructions committed
sim_num_refs               27833169 # total number of loads and stores committed
sim_num_loads              24827756 # total number of loads committed
sim_num_stores         3005413.0000 # total number of stores committed
sim_num_branches           13041101 # total number of branches committed
sim_elapsed_time                 93 # total simulation time in seconds
sim_inst_rate          1075268.8280 # simulation speed (in insts/sec)
sim_total_insn            100000001 # total number of instructions executed
sim_total_refs             27833169 # total number of loads and stores executed
sim_total_loads            24827756 # total number of loads executed
sim_total_stores       3005413.0000 # total number of stores executed
sim_total_branches         13041101 # total number of branches executed
sim_cycle                  54737170 # total simulation time in cycles
sim_IPC                      1.8269 # instructions per cycle
sim_CPI                      0.5474 # cycles per instruction
sim_exec_BW                  1.8269 # total instructions (mis-spec + committed) per cycle
sim_IPB                      7.6681 # instruction per branch
IFQ_count                 218877163 # cumulative IFQ occupancy
IFQ_fcount                 54719233 # cumulative IFQ full count
ifq_occupancy                3.9987 # avg IFQ occupancy (insn's)
ifq_rate                     1.8269 # avg IFQ dispatch rate (insn/cycle)
ifq_latency                  2.1888 # avg IFQ occupant latency (cycle's)
ifq_full                     0.9997 # fraction of time (cycle's) IFQ was full
RUU_count                1305509026 # cumulative RUU occupancy
RUU_fcount                      195 # cumulative RUU full count
ruu_occupancy               23.8505 # avg RUU occupancy (insn's)
ruu_rate                     1.8269 # avg RUU dispatch rate (insn/cycle)
ruu_latency                 13.0551 # avg RUU occupant latency (cycle's)
ruu_full                     0.0000 # fraction of time (cycle's) RUU was full
LSQ_count                 380336199 # cumulative LSQ occupancy
LSQ_fcount                 30552134 # cumulative LSQ full count
lsq_occupancy                6.9484 # avg LSQ occupancy (insn's)
lsq_rate                     1.8269 # avg LSQ dispatch rate (insn/cycle)
lsq_latency                  3.8034 # avg LSQ occupant latency (cycle's)
lsq_full                     0.5582 # fraction of time (cycle's) LSQ was full
sim_slip                 1813678271 # total number of slip cycles
avg_sim_slip                18.1368 # the average slip between issue and retirement
il1.accesses              113088440 # total number of accesses
il1.hits                  113088277 # total number of hits
il1.misses                      163 # total number of misses
il1.replacements                  0 # total number of replacements
il1.writebacks                    0 # total number of writebacks
il1.invalidations                 0 # total number of invalidations
il1.miss_rate                0.0000 # miss rate (i.e., misses/ref)
il1.repl_rate                0.0000 # replacement rate (i.e., repls/ref)
il1.wb_rate                  0.0000 # writeback rate (i.e., wrbks/ref)
il1.inv_rate                 0.0000 # invalidation rate (i.e., invs/ref)
dl1.accesses               27791465 # total number of accesses
dl1.hits                   23355833 # total number of hits
dl1.misses                  4435632 # total number of misses
dl1.replacements            4435376 # total number of replacements
dl1.writebacks               348318 # total number of writebacks
dl1.invalidations                 0 # total number of invalidations
dl1.miss_rate                0.1596 # miss rate (i.e., misses/ref)
dl1.repl_rate                0.1596 # replacement rate (i.e., repls/ref)
dl1.wb_rate                  0.0125 # writeback rate (i.e., wrbks/ref)
dl1.inv_rate                 0.0000 # invalidation rate (i.e., invs/ref)
dl2.accesses                4784113 # total number of accesses
dl2.hits                    4605752 # total number of hits
dl2.misses                   178361 # total number of misses
dl2.replacements             176313 # total number of replacements
dl2.writebacks                74683 # total number of writebacks
dl2.invalidations                 0 # total number of invalidations
dl2.miss_rate                0.0373 # miss rate (i.e., misses/ref)
dl2.repl_rate                0.0369 # replacement rate (i.e., repls/ref)
dl2.wb_rate                  0.0156 # writeback rate (i.e., wrbks/ref)
dl2.inv_rate                 0.0000 # invalidation rate (i.e., invs/ref)
itlb.accesses             113088440 # total number of accesses
itlb.hits                 113088431 # total number of hits
itlb.misses                       9 # total number of misses
itlb.replacements                 0 # total number of replacements
itlb.writebacks                   0 # total number of writebacks
itlb.invalidations                0 # total number of invalidations
itlb.miss_rate               0.0000 # miss rate (i.e., misses/ref)
itlb.repl_rate               0.0000 # replacement rate (i.e., repls/ref)
itlb.wb_rate                 0.0000 # writeback rate (i.e., wrbks/ref)
itlb.inv_rate                0.0000 # invalidation rate (i.e., invs/ref)
dtlb.accesses              27833161 # total number of accesses
dtlb.hits                  27833006 # total number of hits
dtlb.misses                     155 # total number of misses
dtlb.replacements                32 # total number of replacements
dtlb.writebacks                   0 # total number of writebacks
dtlb.invalidations                0 # total number of invalidations
dtlb.miss_rate               0.0000 # miss rate (i.e., misses/ref)
dtlb.repl_rate               0.0000 # replacement rate (i.e., repls/ref)
dtlb.wb_rate                 0.0000 # writeback rate (i.e., wrbks/ref)
dtlb.inv_rate                0.0000 # invalidation rate (i.e., invs/ref)
rename_power           30140771.2686 # total power usage of rename unit
bpred_power            182629939.0918 # total power usage of bpred unit
window_power           320695032.7660 # total power usage of instruction window
lsq_power              88848225.8034 # total power usage of load/store queue
regfile_power          195547012.8588 # total power usage of arch. regfile
icache_power           165993919.6166 # total power usage of icache
dcache_power           352435985.8733 # total power usage of dcache
dcache2_power          169848166.9601 # total power usage of dcache2
alu_power              1036786339.5094 # total power usage of alu
falu_power             781703985.6148 # total power usage of falu
resultbus_power        199495504.2382 # total power usage of resultbus
clock_power            1603953712.1024 # total power usage of clock
avg_rename_power             0.5506 # avg power usage of rename unit
avg_bpred_power              3.3365 # avg power usage of bpred unit
avg_window_power             5.8588 # avg power usage of instruction window
avg_lsq_power                1.6232 # avg power usage of lsq
avg_regfile_power            3.5725 # avg power usage of arch. regfile
avg_icache_power             3.0326 # avg power usage of icache
avg_dcache_power             6.4387 # avg power usage of dcache
avg_dcache2_power            3.1030 # avg power usage of dcache2
avg_alu_power               18.9412 # avg power usage of alu
avg_falu_power              14.2810 # avg power usage of falu
avg_resultbus_power          3.6446 # avg power usage of resultbus
avg_clock_power             29.3028 # avg power usage of clock
fetch_stage_power      348623858.7083 # total power usage of fetch stage
dispatch_stage_power   30140771.2686 # total power usage of dispatch stage
issue_stage_power      2168109255.1504 # total power usage of issue stage
avg_fetch_power              6.3691 # average power of fetch unit per cycle
avg_dispatch_power           0.5506 # average power of dispatch unit per cycle
avg_issue_power             39.6095 # average power of issue unit per cycle
total_power            4346374610.0885 # total power per cycle
avg_total_power_cycle       79.4044 # average total power per cycle
avg_total_power_cycle_nofp_nod2      62.0204 # average total power per cycle
avg_total_power_insn        43.4637 # average total power per insn
avg_total_power_insn_nofp_nod2      33.9482 # average total power per insn
rename_power_cc1       18219041.0493 # total power usage of rename unit_cc1
bpred_power_cc1              0.0000 # total power usage of bpred unit_cc1
window_power_cc1       230601990.2525 # total power usage of instruction window_cc1
lsq_power_cc1          11556080.4815 # total power usage of lsq_cc1
regfile_power_cc1      117450857.0242 # total power usage of arch. regfile_cc1
icache_power_cc1       100337858.8615 # total power usage of icache_cc1
dcache_power_cc1       116148054.9845 # total power usage of dcache_cc1
dcache2_power_cc1      13671088.8578 # total power usage of dcache2_cc1
alu_power_cc1          173788637.2274 # total power usage of alu_cc1
resultbus_power_cc1    130508200.7332 # total power usage of resultbus_cc1
clock_power_cc1        574544914.1185 # total power usage of clock_cc1
avg_rename_power_cc1         0.3328 # avg power usage of rename unit_cc1
avg_bpred_power_cc1          0.0000 # avg power usage of bpred unit_cc1
avg_window_power_cc1         4.2129 # avg power usage of instruction window_cc1
avg_lsq_power_cc1            0.2111 # avg power usage of lsq_cc1
avg_regfile_power_cc1        2.1457 # avg power usage of arch. regfile_cc1
avg_icache_power_cc1         1.8331 # avg power usage of icache_cc1
avg_dcache_power_cc1         2.1219 # avg power usage of dcache_cc1
avg_dcache2_power_cc1        0.2498 # avg power usage of dcache2_cc1
avg_alu_power_cc1            3.1750 # avg power usage of alu_cc1
avg_resultbus_power_cc1       2.3843 # avg power usage of resultbus_cc1
avg_clock_power_cc1         10.4964 # avg power usage of clock_cc1
fetch_stage_power_cc1  100337858.8615 # total power usage of fetch stage_cc1
dispatch_stage_power_cc1 18219041.0493 # total power usage of dispatch stage_cc1
issue_stage_power_cc1  676274052.5370 # total power usage of issue stage_cc1
avg_fetch_power_cc1          1.8331 # average power of fetch unit per cycle_cc1
avg_dispatch_power_cc1       0.3328 # average power of dispatch unit per cycle_cc1
avg_issue_power_cc1         12.3549 # average power of issue unit per cycle_cc1
total_power_cycle_cc1  1486826723.5905 # total power per cycle_cc1
avg_total_power_cycle_cc1      27.1630 # average total power per cycle_cc1
avg_total_power_insn_cc1      14.8683 # average total power per insn_cc1
rename_power_cc2       13766135.3232 # total power usage of rename unit_cc2
bpred_power_cc2              0.0000 # total power usage of bpred unit_cc2
window_power_cc2       210266237.8026 # total power usage of instruction window_cc2
lsq_power_cc2          8395133.6259 # total power usage of lsq_cc2
regfile_power_cc2      38988390.1308 # total power usage of arch. regfile_cc2
icache_power_cc2       100337858.8615 # total power usage of icache_cc2
dcache_power_cc2       89470394.2617 # total power usage of dcache_cc2
dcache2_power_cc2      7422495.7577 # total power usage of dcache2_cc2
alu_power_cc2          116494684.3791 # total power usage of alu_cc2
resultbus_power_cc2    95488697.2457 # total power usage of resultbus_cc2
clock_power_cc2        430410261.7988 # total power usage of clock_cc2
avg_rename_power_cc2         0.2515 # avg power usage of rename unit_cc2
avg_bpred_power_cc2          0.0000 # avg power usage of bpred unit_cc2
avg_window_power_cc2         3.8414 # avg power usage of instruction window_cc2
avg_lsq_power_cc2            0.1534 # avg power usage of instruction lsq_cc2
avg_regfile_power_cc2        0.7123 # avg power usage of arch. regfile_cc2
avg_icache_power_cc2         1.8331 # avg power usage of icache_cc2
avg_dcache_power_cc2         1.6345 # avg power usage of dcache_cc2
avg_dcache2_power_cc2        0.1356 # avg power usage of dcache2_cc2
avg_alu_power_cc2            2.1283 # avg power usage of alu_cc2
avg_resultbus_power_cc2       1.7445 # avg power usage of resultbus_cc2
avg_clock_power_cc2          7.8632 # avg power usage of clock_cc2
fetch_stage_power_cc2  100337858.8615 # total power usage of fetch stage_cc2
dispatch_stage_power_cc2 13766135.3232 # total power usage of dispatch stage_cc2
issue_stage_power_cc2  527537643.0726 # total power usage of issue stage_cc2
avg_fetch_power_cc2          1.8331 # average power of fetch unit per cycle_cc2
avg_dispatch_power_cc2       0.2515 # average power of dispatch unit per cycle_cc2
avg_issue_power_cc2          9.6376 # average power of issue unit per cycle_cc2
total_power_cycle_cc2  1111040289.1869 # total power per cycle_cc2
avg_total_power_cycle_cc2      20.2977 # average total power per cycle_cc2
avg_total_power_insn_cc2      11.1104 # average total power per insn_cc2
rename_power_cc3       14958308.3396 # total power usage of rename unit_cc3
bpred_power_cc3        18262993.9125 # total power usage of bpred unit_cc3
window_power_cc3       219848996.3084 # total power usage of instruction window_cc3
lsq_power_cc3          16101708.9739 # total power usage of lsq_cc3
regfile_power_cc3      45543145.8798 # total power usage of arch. regfile_cc3
icache_power_cc3       106903464.8974 # total power usage of icache_cc3
dcache_power_cc3       113298912.8041 # total power usage of dcache_cc3
dcache2_power_cc3      23040989.8525 # total power usage of dcache2_cc3
alu_power_cc3          202794454.2219 # total power usage of alu_cc3
resultbus_power_cc3    101556187.4186 # total power usage of resultbus_cc3
clock_power_cc3        532465841.2587 # total power usage of clock_cc3
avg_rename_power_cc3         0.2733 # avg power usage of rename unit_cc3
avg_bpred_power_cc3          0.3336 # avg power usage of bpred unit_cc3
avg_window_power_cc3         4.0164 # avg power usage of instruction window_cc3
avg_lsq_power_cc3            0.2942 # avg power usage of instruction lsq_cc3
avg_regfile_power_cc3        0.8320 # avg power usage of arch. regfile_cc3
avg_icache_power_cc3         1.9530 # avg power usage of icache_cc3
avg_dcache_power_cc3         2.0699 # avg power usage of dcache_cc3
avg_dcache2_power_cc3        0.4209 # avg power usage of dcache2_cc3
avg_alu_power_cc3            3.7049 # avg power usage of alu_cc3
avg_resultbus_power_cc3       1.8553 # avg power usage of resultbus_cc3
avg_clock_power_cc3          9.7277 # avg power usage of clock_cc3
fetch_stage_power_cc3  125166458.8099 # total power usage of fetch stage_cc3
dispatch_stage_power_cc3 14958308.3396 # total power usage of dispatch stage_cc3
issue_stage_power_cc3  676641249.5794 # total power usage of issue stage_cc3
avg_fetch_power_cc3          2.2867 # average power of fetch unit per cycle_cc3
avg_dispatch_power_cc3       0.2733 # average power of dispatch unit per cycle_cc3
avg_issue_power_cc3         12.3616 # average power of issue unit per cycle_cc3
total_power_cycle_cc3  1394775003.8674 # total power per cycle_cc3
avg_total_power_cycle_cc3      25.4813 # average total power per cycle_cc3
avg_total_power_insn_cc3      13.9477 # average total power per insn_cc3
total_rename_access       100000001 # total number accesses of rename unit
total_bpred_access                0 # total number accesses of bpred unit
total_window_access       365873108 # total number accesses of instruction window
total_lsq_access           27874857 # total number accesses of load/store queue
total_regfile_access      145739643 # total number accesses of arch. regfile
total_icache_access       113088440 # total number accesses of icache
total_dcache_access        27791465 # total number accesses of dcache
total_dcache2_access        4784113 # total number accesses of dcache2
total_alu_access           99992638 # total number accesses of alu
total_resultbus_access    111786642 # total number accesses of resultbus
avg_rename_access            1.8269 # avg number accesses of rename unit
avg_bpred_access             0.0000 # avg number accesses of bpred unit
avg_window_access            6.6842 # avg number accesses of instruction window
avg_lsq_access               0.5092 # avg number accesses of lsq
avg_regfile_access           2.6625 # avg number accesses of arch. regfile
avg_icache_access            2.0660 # avg number accesses of icache
avg_dcache_access            0.5077 # avg number accesses of dcache
avg_dcache2_access           0.0874 # avg number accesses of dcache2
avg_alu_access               1.8268 # avg number accesses of alu
avg_resultbus_access         2.0422 # avg number accesses of resultbus
max_rename_access                 4 # max number accesses of rename unit
max_bpred_access                  0 # max number accesses of bpred unit
max_window_access                18 # max number accesses of instruction window
max_lsq_access                    5 # max number accesses of load/store queue
max_regfile_access               10 # max number accesses of arch. regfile
max_icache_access                 4 # max number accesses of icache
max_dcache_access                 4 # max number accesses of dcache
max_dcache2_access                4 # max number accesses of dcache2
max_alu_access                    4 # max number accesses of alu
max_resultbus_access              7 # max number accesses of resultbus
max_cycle_power_cc1         47.4643 # maximum cycle power usage of cc1
max_cycle_power_cc2         40.2327 # maximum cycle power usage of cc2
max_cycle_power_cc3         43.9032 # maximum cycle power usage of cc3
sim_invalid_addrs                 0 # total non-speculative bogus addresses seen (debug var)
ld_text_base           0x0120000000 # program text (code) segment base
ld_text_size                 212992 # program text (code) size in bytes
ld_data_base           0x0140000000 # program initialized data segment base
ld_data_size                 402416 # program init'ed `.data' and uninit'ed `.bss' size in bytes
ld_stack_base          0x011ff9b000 # program stack segment base (highest address in stack)
ld_stack_size                 16384 # program initial stack size
ld_prog_entry          0x01200119b4 # program entry point (initial PC)
ld_environ_base        0x011ff96ef0 # program environment base address address
ld_target_big_endian              0 # target executable endian-ness, non-zero if big endian
mem.page_count                23131 # total number of pages allocated
mem.page_mem                185048k # total size of memory pages allocated
mem.ptab_misses             4159156 # total first level page table misses
mem.ptab_accesses         883128730 # total page table accesses
mem.ptab_miss_rate           0.0047 # first level page table miss rate

