sim-outorder: SimpleScalar/Alpha Tool Set version 3.0 of August, 2003.
Copyright (c) 1994-2003 by Todd M. Austin, Ph.D. and SimpleScalar, LLC.
All Rights Reserved. This version of SimpleScalar is licensed for academic
non-commercial use.  No portion of this work may be used by any commercial
entity, or for any commercial purpose, without the prior written permission
of SimpleScalar, LLC (info@simplescalar.com).


Processor Parameters:
Issue Width: 4
Window Size: 64
Number of Virtual Registers: 32
Number of Physical Registers: 64
Datapath Width: 64
Total Power Consumption: 81.4044
Branch Predictor Power Consumption: 3.33649  (4.2%)
 branch target buffer power (W): 2.49493
 local predict power (W): 0.574771
 global predict power (W): 0.0996078
 chooser power (W): 0.0702439
 RAS power (W): 0.0969383
Rename Logic Power Consumption: 0.550645  (0.693%)
 Instruction Decode Power (W): 0.0159915
 RAT decode_power (W): 0.113514
 RAT wordline_power (W): 0.0400762
 RAT bitline_power (W): 0.370156
 DCL Comparators (W): 0.0109075
Instruction Window Power Consumption: 5.85882  (7.38%)
 tagdrive (W): 0.431765
 tagmatch (W): 0.187578
 Selection Logic (W): 0.0563711
 decode_power (W): 0.244146
 wordline_power (W): 0.0844643
 bitline_power (W): 4.85449
Load/Store Queue Power Consumption: 1.62318  (2.04%)
 tagdrive (W): 0.457232
 tagmatch (W): 0.100774
 decode_power (W): 0.00799577
 wordline_power (W): 0.0150119
 bitline_power (W): 1.04217
Arch. Register File Power Consumption: 3.57247  (4.5%)
 decode_power (W): 0.113514
 wordline_power (W): 0.0844643
 bitline_power (W): 3.37449
Result Bus Power Consumption: 3.64461  (4.59%)
Total Clock Power: 29.3028  (36.9%)
Int ALU Power: 4.66013  (5.87%)
FP ALU Power: 14.281  (18%)
Instruction Cache Power Consumption: 2.76773  (3.49%)
 decode_power (W): 0.151353
 wordline_power (W): 0.180479
 bitline_power (W): 1.42251
 senseamp_power (W): 0.768
 tagarray_power (W): 0.245382
Itlb_power (W): 0.264834 (0.334%)
Data Cache Power Consumption: 5.53546  (6.97%)
 decode_power (W): 0.302705
 wordline_power (W): 0.360958
 bitline_power (W): 2.84503
 senseamp_power (W): 1.536
 tagarray_power (W): 0.490764
Dtlb_power (W): 0.903238 (1.14%)
Level 2 Cache Power Consumption: 3.10298 (3.91%)
 decode_power (W): 0.19487
 wordline_power (W): 0.0430878
 bitline_power (W): 1.77274
 senseamp_power (W): 0.192
 tagarray_power (W): 0.900275
sim: loading EIO file: ../benchmarks/183.equake.spec_ref.eio.gz
sim: command line: ./sim-outorder -config ../configs/current.config ../benchmarks/183.equake.spec_ref.eio.gz 

sim: simulation started @ Tue Nov 24 10:28:11 2015, options follow:

sim-outorder: This simulator implements a very detailed out-of-order issue
superscalar processor with a two-level memory system and speculative
execution support.  This simulator is a performance simulator, tracking the
latency of all pipeline operations.

# -config                     # load configuration from a file
# -dumpconfig                 # dump configuration to a file
# -h                    false # print help message    
# -v                    false # verbose operation     
# -d                    false # enable debug message  
# -i                    false # start in Dlite debugger
-seed                       1 # random number generator seed (0 for timer seed)
# -q                    false # initialize and terminate immediately
# -chkpt               <null> # restore EIO trace execution from <fname>
# -redir:sim     ../results/17_15_ruu/183.equake.spec_ref.eio.gz.out # redirect simulator output to file (non-interactive only)
# -redir:prog       /dev/null # redirect simulated program output to file
-nice                       0 # simulator scheduling priority
-freq            600000000.0000 # frequency             
-max:inst           100000000 # maximum number of inst's to execute
-fastfwd                    0 # number of insts skipped before timing starts
# -ptrace              <null> # generate pipetrace, i.e., <fname|stdout|stderr> <range>
-fetch:ifqsize              4 # instruction fetch queue size (in insts)
-fetch:mplat               15 # extra branch mis-prediction latency
-fetch:speed                1 # speed of front-end of machine relative to execution core
-bpred                perfect # branch predictor type {nottaken|taken|perfect|bimod|2lev|comb}
-bpred:bimod     2048 # bimodal predictor config (<table size>)
-bpred:2lev      1 16384 4 0 # 2-level predictor config (<l1size> <l2size> <hist_size> <xor>)
-bpred:comb      1024 # combining predictor config (<meta_table_size>)
-bpred:ras                  8 # return address stack size (0 for no return stack)
-bpred:btb       512 4 # BTB config (<num_sets> <associativity>)
# -bpred:spec_update       <null> # speculative predictors update in {ID|WB} (default non-spec)
-decode:width               4 # instruction decode B/W (insts/cycle)
-issue:width                4 # instruction issue B/W (insts/cycle)
-issue:inorder          false # run pipeline with in-order issue
-issue:wrongpath         true # issue instructions down wrong execution paths
-commit:width               4 # instruction commit B/W (insts/cycle)
-ruu:size                  64 # register update unit (RUU) size
-lsq:size                   8 # load/store queue (LSQ) size
-cache:dl1       dl1:32:64:8:f # l1 data cache config, i.e., {<config>|none}
-cache:dl1lat               1 # l1 data cache hit latency (in cycles)
-cache:dl2       dl2:256:64:8:f # l2 data cache config, i.e., {<config>|none}
-cache:dl2lat               2 # l2 data cache hit latency (in cycles)
-cache:il1       il1:32:64:8:f # l1 inst cache config, i.e., {<config>|dl1|dl2|none}
-cache:il1lat               1 # l1 instruction cache hit latency (in cycles)
-cache:il2                dl2 # l2 instruction cache config, i.e., {<config>|dl2|none}
-cache:il2lat               2 # l2 instruction cache hit latency (in cycles)
-cache:flush            false # flush caches on system calls
-cache:icompress        false # convert 64-bit inst addresses to 32-bit inst equivalents
-mem:lat         103 1 # memory access latency (<first_chunk> <inter_chunk>)
-mem:width                  8 # memory access bus width (in bytes)
-tlb:itlb        itlb:16:4096:4:l # instruction TLB config, i.e., {<config>|none}
-tlb:dtlb        dtlb:32:4096:4:l # data TLB config, i.e., {<config>|none}
-tlb:lat                   30 # inst/data TLB miss latency (in cycles)
-res:ialu                   4 # total number of integer ALU's available
-res:imult                  1 # total number of integer multiplier/dividers available
-res:memport                2 # total number of memory system ports available (to CPU)
-res:fpalu                  4 # total number of floating point ALU's available
-res:fpmult                 1 # total number of floating point multiplier/dividers available
# -pcstat              <null> # profile stat(s) against text addr's (mult uses ok)
-bugcompat              false # operate in backward-compatible bugs mode (for testing only)

  Pipetrace range arguments are formatted as follows:

    {{@|#}<start>}:{{@|#|+}<end>}

  Both ends of the range are optional, if neither are specified, the entire
  execution is traced.  Ranges that start with a `@' designate an address
  range to be traced, those that start with an `#' designate a cycle count
  range.  All other range values represent an instruction count range.  The
  second argument, if specified with a `+', indicates a value relative
  to the first argument, e.g., 1000:+100 == 1000:1100.  Program symbols may
  be used in all contexts.

    Examples:   -ptrace FOO.trc #0:#1000
                -ptrace BAR.trc @2000:
                -ptrace BLAH.trc :1500
                -ptrace UXXE.trc :
                -ptrace FOOBAR.trc @main:+278

  Branch predictor configuration examples for 2-level predictor:
    Configurations:   N, M, W, X
      N   # entries in first level (# of shift register(s))
      W   width of shift register(s)
      M   # entries in 2nd level (# of counters, or other FSM)
      X   (yes-1/no-0) xor history and address for 2nd level index
    Sample predictors:
      GAg     : 1, W, 2^W, 0
      GAp     : 1, W, M (M > 2^W), 0
      PAg     : N, W, 2^W, 0
      PAp     : N, W, M (M == 2^(N+W)), 0
      gshare  : 1, W, 2^W, 1
  Predictor `comb' combines a bimodal and a 2-level predictor.

  The cache config parameter <config> has the following format:

    <name>:<nsets>:<bsize>:<assoc>:<repl>

    <name>   - name of the cache being defined
    <nsets>  - number of sets in the cache
    <bsize>  - block size of the cache
    <assoc>  - associativity of the cache
    <repl>   - block replacement strategy, 'l'-LRU, 'f'-FIFO, 'r'-random

    Examples:   -cache:dl1 dl1:4096:32:1:l
                -dtlb dtlb:128:4096:32:r

  Cache levels can be unified by pointing a level of the instruction cache
  hierarchy at the data cache hiearchy using the "dl1" and "dl2" cache
  configuration arguments.  Most sensible combinations are supported, e.g.,

    A unified l2 cache (il2 is pointed at dl2):
      -cache:il1 il1:128:64:1:l -cache:il2 dl2
      -cache:dl1 dl1:256:32:1:l -cache:dl2 ul2:1024:64:2:l

    Or, a fully unified cache hierarchy (il1 pointed at dl1):
      -cache:il1 dl1
      -cache:dl1 ul1:256:32:1:l -cache:dl2 ul2:1024:64:2:l



sim: ** starting performance simulation **

sim: ** simulation statistics **
sim_num_insn              100000003 # total number of instructions committed
sim_num_refs               45231619 # total number of loads and stores committed
sim_num_loads              40733803 # total number of loads committed
sim_num_stores         4497816.0000 # total number of stores committed
sim_num_branches            3673861 # total number of branches committed
sim_elapsed_time                177 # total simulation time in seconds
sim_inst_rate           564971.7684 # simulation speed (in insts/sec)
sim_total_insn            100000003 # total number of instructions executed
sim_total_refs             45231619 # total number of loads and stores executed
sim_total_loads            40733803 # total number of loads executed
sim_total_stores       4497816.0000 # total number of stores executed
sim_total_branches          3673861 # total number of branches executed
sim_cycle                 275205077 # total simulation time in cycles
sim_IPC                      0.3634 # instructions per cycle
sim_CPI                      2.7521 # cycles per instruction
sim_exec_BW                  0.3634 # total instructions (mis-spec + committed) per cycle
sim_IPB                     27.2193 # instruction per branch
IFQ_count                1100757360 # cumulative IFQ occupancy
IFQ_fcount                275189000 # cumulative IFQ full count
ifq_occupancy                3.9998 # avg IFQ occupancy (insn's)
ifq_rate                     0.3634 # avg IFQ dispatch rate (insn/cycle)
ifq_latency                 11.0076 # avg IFQ occupant latency (cycle's)
ifq_full                     0.9999 # fraction of time (cycle's) IFQ was full
RUU_count                3969419809 # cumulative RUU occupancy
RUU_fcount                        0 # cumulative RUU full count
ruu_occupancy               14.4235 # avg RUU occupancy (insn's)
ruu_rate                     0.3634 # avg RUU dispatch rate (insn/cycle)
ruu_latency                 39.6942 # avg RUU occupant latency (cycle's)
ruu_full                     0.0000 # fraction of time (cycle's) RUU was full
LSQ_count                2165793713 # cumulative LSQ occupancy
LSQ_fcount                257610683 # cumulative LSQ full count
lsq_occupancy                7.8697 # avg LSQ occupancy (insn's)
lsq_rate                     0.3634 # avg LSQ dispatch rate (insn/cycle)
lsq_latency                 21.6579 # avg LSQ occupant latency (cycle's)
lsq_full                     0.9361 # fraction of time (cycle's) LSQ was full
sim_slip                 6280443754 # total number of slip cycles
avg_sim_slip                62.8044 # the average slip between issue and retirement
il1.accesses              103275146 # total number of accesses
il1.hits                  103275000 # total number of hits
il1.misses                      146 # total number of misses
il1.replacements                  0 # total number of replacements
il1.writebacks                    0 # total number of writebacks
il1.invalidations                 0 # total number of invalidations
il1.miss_rate                0.0000 # miss rate (i.e., misses/ref)
il1.repl_rate                0.0000 # replacement rate (i.e., repls/ref)
il1.wb_rate                  0.0000 # writeback rate (i.e., wrbks/ref)
il1.inv_rate                 0.0000 # invalidation rate (i.e., invs/ref)
dl1.accesses               44417057 # total number of accesses
dl1.hits                   40355183 # total number of hits
dl1.misses                  4061874 # total number of misses
dl1.replacements            4061618 # total number of replacements
dl1.writebacks               430186 # total number of writebacks
dl1.invalidations                 0 # total number of invalidations
dl1.miss_rate                0.0914 # miss rate (i.e., misses/ref)
dl1.repl_rate                0.0914 # replacement rate (i.e., repls/ref)
dl1.wb_rate                  0.0097 # writeback rate (i.e., wrbks/ref)
dl1.inv_rate                 0.0000 # invalidation rate (i.e., invs/ref)
dl2.accesses                4492206 # total number of accesses
dl2.hits                    1664680 # total number of hits
dl2.misses                  2827526 # total number of misses
dl2.replacements            2825478 # total number of replacements
dl2.writebacks               331249 # total number of writebacks
dl2.invalidations                 0 # total number of invalidations
dl2.miss_rate                0.6294 # miss rate (i.e., misses/ref)
dl2.repl_rate                0.6290 # replacement rate (i.e., repls/ref)
dl2.wb_rate                  0.0737 # writeback rate (i.e., wrbks/ref)
dl2.inv_rate                 0.0000 # invalidation rate (i.e., invs/ref)
itlb.accesses             103275146 # total number of accesses
itlb.hits                 103275140 # total number of hits
itlb.misses                       6 # total number of misses
itlb.replacements                 0 # total number of replacements
itlb.writebacks                   0 # total number of writebacks
itlb.invalidations                0 # total number of invalidations
itlb.miss_rate               0.0000 # miss rate (i.e., misses/ref)
itlb.repl_rate               0.0000 # replacement rate (i.e., repls/ref)
itlb.wb_rate                 0.0000 # writeback rate (i.e., wrbks/ref)
itlb.inv_rate                0.0000 # invalidation rate (i.e., invs/ref)
dtlb.accesses              45231619 # total number of accesses
dtlb.hits                  45184613 # total number of hits
dtlb.misses                   47006 # total number of misses
dtlb.replacements             46878 # total number of replacements
dtlb.writebacks                   0 # total number of writebacks
dtlb.invalidations                0 # total number of invalidations
dtlb.miss_rate               0.0010 # miss rate (i.e., misses/ref)
dtlb.repl_rate               0.0010 # replacement rate (i.e., repls/ref)
dtlb.wb_rate                 0.0000 # writeback rate (i.e., wrbks/ref)
dtlb.inv_rate                0.0000 # invalidation rate (i.e., invs/ref)
rename_power           151540412.5110 # total power usage of rename unit
bpred_power            918218577.7454 # total power usage of bpred unit
window_power           1612376031.8466 # total power usage of instruction window
lsq_power              446707106.6979 # total power usage of load/store queue
regfile_power          983162458.5673 # total power usage of arch. regfile
icache_power           834576750.7030 # total power usage of icache
dcache_power           1771961757.2207 # total power usage of dcache
dcache2_power          853954966.3608 # total power usage of dcache2
alu_power              5212707649.4751 # total power usage of alu
falu_power             3930216077.7238 # total power usage of falu
resultbus_power        1003014501.8519 # total power usage of resultbus
clock_power            8064286203.3207 # total power usage of clock
avg_rename_power             0.5506 # avg power usage of rename unit
avg_bpred_power              3.3365 # avg power usage of bpred unit
avg_window_power             5.8588 # avg power usage of instruction window
avg_lsq_power                1.6232 # avg power usage of lsq
avg_regfile_power            3.5725 # avg power usage of arch. regfile
avg_icache_power             3.0326 # avg power usage of icache
avg_dcache_power             6.4387 # avg power usage of dcache
avg_dcache2_power            3.1030 # avg power usage of dcache2
avg_alu_power               18.9412 # avg power usage of alu
avg_falu_power              14.2810 # avg power usage of falu
avg_resultbus_power          3.6446 # avg power usage of resultbus
avg_clock_power             29.3028 # avg power usage of clock
fetch_stage_power      1752795328.4484 # total power usage of fetch stage
dispatch_stage_power   151540412.5110 # total power usage of dispatch stage
issue_stage_power      10900722013.4531 # total power usage of issue stage
avg_fetch_power              6.3691 # average power of fetch unit per cycle
avg_dispatch_power           0.5506 # average power of dispatch unit per cycle
avg_issue_power             39.6095 # average power of issue unit per cycle
total_power            21852506416.3005 # total power per cycle
avg_total_power_cycle       79.4044 # average total power per cycle
avg_total_power_cycle_nofp_nod2      62.0204 # average total power per cycle
avg_total_power_insn       218.5251 # average total power per insn
avg_total_power_insn_nofp_nod2     170.6833 # average total power per insn
rename_power_cc1       17627129.7246 # total power usage of rename unit_cc1
bpred_power_cc1              0.0000 # total power usage of bpred unit_cc1
window_power_cc1       345815785.4143 # total power usage of instruction window_cc1
lsq_power_cc1          19663626.8378 # total power usage of lsq_cc1
regfile_power_cc1      138818434.4270 # total power usage of arch. regfile_cc1
icache_power_cc1       97077835.3761 # total power usage of icache_cc1
dcache_power_cc1       189661126.9195 # total power usage of dcache_cc1
dcache2_power_cc1      11566274.5502 # total power usage of dcache2_cc1
alu_power_cc1          551207972.2668 # total power usage of alu_cc1
resultbus_power_cc1    185301828.3813 # total power usage of resultbus_cc1
clock_power_cc1        929595241.2531 # total power usage of clock_cc1
avg_rename_power_cc1         0.0641 # avg power usage of rename unit_cc1
avg_bpred_power_cc1          0.0000 # avg power usage of bpred unit_cc1
avg_window_power_cc1         1.2566 # avg power usage of instruction window_cc1
avg_lsq_power_cc1            0.0715 # avg power usage of lsq_cc1
avg_regfile_power_cc1        0.5044 # avg power usage of arch. regfile_cc1
avg_icache_power_cc1         0.3527 # avg power usage of icache_cc1
avg_dcache_power_cc1         0.6892 # avg power usage of dcache_cc1
avg_dcache2_power_cc1        0.0420 # avg power usage of dcache2_cc1
avg_alu_power_cc1            2.0029 # avg power usage of alu_cc1
avg_resultbus_power_cc1       0.6733 # avg power usage of resultbus_cc1
avg_clock_power_cc1          3.3778 # avg power usage of clock_cc1
fetch_stage_power_cc1  97077835.3761 # total power usage of fetch stage_cc1
dispatch_stage_power_cc1 17627129.7246 # total power usage of dispatch stage_cc1
issue_stage_power_cc1  1303216614.3698 # total power usage of issue stage_cc1
avg_fetch_power_cc1          0.3527 # average power of fetch unit per cycle_cc1
avg_dispatch_power_cc1       0.0641 # average power of dispatch unit per cycle_cc1
avg_issue_power_cc1          4.7354 # average power of issue unit per cycle_cc1
total_power_cycle_cc1  2486335255.1506 # total power per cycle_cc1
avg_total_power_cycle_cc1       9.0345 # average total power per cycle_cc1
avg_total_power_insn_cc1      24.8634 # average total power per insn_cc1
rename_power_cc2       13766135.5987 # total power usage of rename unit_cc2
bpred_power_cc2              0.0000 # total power usage of bpred unit_cc2
window_power_cc2       241017593.4687 # total power usage of instruction window_cc2
lsq_power_cc2          13856544.0910 # total power usage of lsq_cc2
regfile_power_cc2      47740282.7983 # total power usage of arch. regfile_cc2
icache_power_cc2       97077835.3761 # total power usage of icache_cc2
dcache_power_cc2       142993958.8556 # total power usage of dcache_cc2
dcache2_power_cc2      6969605.4372 # total power usage of dcache2_cc2
alu_power_cc2          199529189.5861 # total power usage of alu_cc2
resultbus_power_cc2    117077270.4825 # total power usage of resultbus_cc2
clock_power_cc2        525452188.2832 # total power usage of clock_cc2
avg_rename_power_cc2         0.0500 # avg power usage of rename unit_cc2
avg_bpred_power_cc2          0.0000 # avg power usage of bpred unit_cc2
avg_window_power_cc2         0.8758 # avg power usage of instruction window_cc2
avg_lsq_power_cc2            0.0503 # avg power usage of instruction lsq_cc2
avg_regfile_power_cc2        0.1735 # avg power usage of arch. regfile_cc2
avg_icache_power_cc2         0.3527 # avg power usage of icache_cc2
avg_dcache_power_cc2         0.5196 # avg power usage of dcache_cc2
avg_dcache2_power_cc2        0.0253 # avg power usage of dcache2_cc2
avg_alu_power_cc2            0.7250 # avg power usage of alu_cc2
avg_resultbus_power_cc2       0.4254 # avg power usage of resultbus_cc2
avg_clock_power_cc2          1.9093 # avg power usage of clock_cc2
fetch_stage_power_cc2  97077835.3761 # total power usage of fetch stage_cc2
dispatch_stage_power_cc2 13766135.5987 # total power usage of dispatch stage_cc2
issue_stage_power_cc2  721444161.9211 # total power usage of issue stage_cc2
avg_fetch_power_cc2          0.3527 # average power of fetch unit per cycle_cc2
avg_dispatch_power_cc2       0.0500 # average power of dispatch unit per cycle_cc2
avg_issue_power_cc2          2.6215 # average power of issue unit per cycle_cc2
total_power_cycle_cc2  1405480603.9774 # total power per cycle_cc2
avg_total_power_cycle_cc2       5.1070 # average total power per cycle_cc2
avg_total_power_insn_cc2      14.0548 # average total power per insn_cc2
rename_power_cc3       27157463.7279 # total power usage of rename unit_cc3
bpred_power_cc3        91821857.6554 # total power usage of bpred unit_cc3
window_power_cc3       366724408.8374 # total power usage of instruction window_cc3
lsq_power_cc3          56499224.3700 # total power usage of lsq_cc3
regfile_power_cc3      130610090.4723 # total power usage of arch. regfile_cc3
icache_power_cc3       170827726.3815 # total power usage of icache_cc3
dcache_power_cc3       301342522.8964 # total power usage of dcache_cc3
dcache2_power_cc3      91218558.6349 # total power usage of dcache2_cc3
alu_power_cc3          665679157.9149 # total power usage of alu_cc3
resultbus_power_cc3    198060343.0812 # total power usage of resultbus_cc3
clock_power_cc3        1237034554.9082 # total power usage of clock_cc3
avg_rename_power_cc3         0.0987 # avg power usage of rename unit_cc3
avg_bpred_power_cc3          0.3336 # avg power usage of bpred unit_cc3
avg_window_power_cc3         1.3325 # avg power usage of instruction window_cc3
avg_lsq_power_cc3            0.2053 # avg power usage of instruction lsq_cc3
avg_regfile_power_cc3        0.4746 # avg power usage of arch. regfile_cc3
avg_icache_power_cc3         0.6207 # avg power usage of icache_cc3
avg_dcache_power_cc3         1.0950 # avg power usage of dcache_cc3
avg_dcache2_power_cc3        0.3315 # avg power usage of dcache2_cc3
avg_alu_power_cc3            2.4188 # avg power usage of alu_cc3
avg_resultbus_power_cc3       0.7197 # avg power usage of resultbus_cc3
avg_clock_power_cc3          4.4950 # avg power usage of clock_cc3
fetch_stage_power_cc3  262649584.0369 # total power usage of fetch stage_cc3
dispatch_stage_power_cc3 27157463.7279 # total power usage of dispatch stage_cc3
issue_stage_power_cc3  1679524215.7348 # total power usage of issue stage_cc3
avg_fetch_power_cc3          0.9544 # average power of fetch unit per cycle_cc3
avg_dispatch_power_cc3       0.0987 # average power of dispatch unit per cycle_cc3
avg_issue_power_cc3          6.1028 # average power of issue unit per cycle_cc3
total_power_cycle_cc3  3336975908.8801 # total power per cycle_cc3
avg_total_power_cycle_cc3      12.1254 # average total power per cycle_cc3
avg_total_power_insn_cc3      33.3698 # average total power per insn_cc3
total_rename_access       100000003 # total number accesses of rename unit
total_bpred_access                0 # total number accesses of bpred unit
total_window_access       422613458 # total number accesses of instruction window
total_lsq_access           46046181 # total number accesses of load/store queue
total_regfile_access      179702538 # total number accesses of arch. regfile
total_icache_access       103275146 # total number accesses of icache
total_dcache_access        44417057 # total number accesses of dcache
total_dcache2_access        4492206 # total number accesses of dcache2
total_alu_access           99999998 # total number accesses of alu
total_resultbus_access    137059938 # total number accesses of resultbus
avg_rename_access            0.3634 # avg number accesses of rename unit
avg_bpred_access             0.0000 # avg number accesses of bpred unit
avg_window_access            1.5356 # avg number accesses of instruction window
avg_lsq_access               0.1673 # avg number accesses of lsq
avg_regfile_access           0.6530 # avg number accesses of arch. regfile
avg_icache_access            0.3753 # avg number accesses of icache
avg_dcache_access            0.1614 # avg number accesses of dcache
avg_dcache2_access           0.0163 # avg number accesses of dcache2
avg_alu_access               0.3634 # avg number accesses of alu
avg_resultbus_access         0.4980 # avg number accesses of resultbus
max_rename_access                 4 # max number accesses of rename unit
max_bpred_access                  0 # max number accesses of bpred unit
max_window_access                16 # max number accesses of instruction window
max_lsq_access                    4 # max number accesses of load/store queue
max_regfile_access               11 # max number accesses of arch. regfile
max_icache_access                 4 # max number accesses of icache
max_dcache_access                 4 # max number accesses of dcache
max_dcache2_access                5 # max number accesses of dcache2
max_alu_access                    4 # max number accesses of alu
max_resultbus_access              7 # max number accesses of resultbus
max_cycle_power_cc1         50.1893 # maximum cycle power usage of cc1
max_cycle_power_cc2         34.4338 # maximum cycle power usage of cc2
max_cycle_power_cc3         37.9898 # maximum cycle power usage of cc3
sim_invalid_addrs                 0 # total non-speculative bogus addresses seen (debug var)
ld_text_base           0x0120000000 # program text (code) segment base
ld_text_size                 253952 # program text (code) size in bytes
ld_data_base           0x0140000000 # program initialized data segment base
ld_data_size                  76704 # program init'ed `.data' and uninit'ed `.bss' size in bytes
ld_stack_base          0x011ff9b000 # program stack segment base (highest address in stack)
ld_stack_size                 16384 # program initial stack size
ld_prog_entry          0x0120013bd4 # program entry point (initial PC)
ld_environ_base        0x011ff967e0 # program environment base address address
ld_target_big_endian              0 # target executable endian-ness, non-zero if big endian
mem.page_count                 6268 # total number of pages allocated
mem.page_mem                 50144k # total size of memory pages allocated
mem.ptab_misses                6274 # total first level page table misses
mem.ptab_accesses        1014603052 # total page table accesses
mem.ptab_miss_rate           0.0000 # first level page table miss rate

