sim-outorder: SimpleScalar/Alpha Tool Set version 3.0 of August, 2003.
Copyright (c) 1994-2003 by Todd M. Austin, Ph.D. and SimpleScalar, LLC.
All Rights Reserved. This version of SimpleScalar is licensed for academic
non-commercial use.  No portion of this work may be used by any commercial
entity, or for any commercial purpose, without the prior written permission
of SimpleScalar, LLC (info@simplescalar.com).


Processor Parameters:
Issue Width: 4
Window Size: 64
Number of Virtual Registers: 32
Number of Physical Registers: 64
Datapath Width: 64
Total Power Consumption: 81.4044
Branch Predictor Power Consumption: 3.33649  (4.2%)
 branch target buffer power (W): 2.49493
 local predict power (W): 0.574771
 global predict power (W): 0.0996078
 chooser power (W): 0.0702439
 RAS power (W): 0.0969383
Rename Logic Power Consumption: 0.550645  (0.693%)
 Instruction Decode Power (W): 0.0159915
 RAT decode_power (W): 0.113514
 RAT wordline_power (W): 0.0400762
 RAT bitline_power (W): 0.370156
 DCL Comparators (W): 0.0109075
Instruction Window Power Consumption: 5.85882  (7.38%)
 tagdrive (W): 0.431765
 tagmatch (W): 0.187578
 Selection Logic (W): 0.0563711
 decode_power (W): 0.244146
 wordline_power (W): 0.0844643
 bitline_power (W): 4.85449
Load/Store Queue Power Consumption: 1.62318  (2.04%)
 tagdrive (W): 0.457232
 tagmatch (W): 0.100774
 decode_power (W): 0.00799577
 wordline_power (W): 0.0150119
 bitline_power (W): 1.04217
Arch. Register File Power Consumption: 3.57247  (4.5%)
 decode_power (W): 0.113514
 wordline_power (W): 0.0844643
 bitline_power (W): 3.37449
Result Bus Power Consumption: 3.64461  (4.59%)
Total Clock Power: 29.3028  (36.9%)
Int ALU Power: 4.66013  (5.87%)
FP ALU Power: 14.281  (18%)
Instruction Cache Power Consumption: 2.76773  (3.49%)
 decode_power (W): 0.151353
 wordline_power (W): 0.180479
 bitline_power (W): 1.42251
 senseamp_power (W): 0.768
 tagarray_power (W): 0.245382
Itlb_power (W): 0.264834 (0.334%)
Data Cache Power Consumption: 5.53546  (6.97%)
 decode_power (W): 0.302705
 wordline_power (W): 0.360958
 bitline_power (W): 2.84503
 senseamp_power (W): 1.536
 tagarray_power (W): 0.490764
Dtlb_power (W): 0.903238 (1.14%)
Level 2 Cache Power Consumption: 3.10298 (3.91%)
 decode_power (W): 0.19487
 wordline_power (W): 0.0430878
 bitline_power (W): 1.77274
 senseamp_power (W): 0.192
 tagarray_power (W): 0.900275
sim: loading EIO file: ../benchmarks/189.lucas.spec_ref.eio.gz
sim: command line: ./sim-outorder -config ../configs/current.config ../benchmarks/189.lucas.spec_ref.eio.gz 

sim: simulation started @ Tue Nov 24 10:28:19 2015, options follow:

sim-outorder: This simulator implements a very detailed out-of-order issue
superscalar processor with a two-level memory system and speculative
execution support.  This simulator is a performance simulator, tracking the
latency of all pipeline operations.

# -config                     # load configuration from a file
# -dumpconfig                 # dump configuration to a file
# -h                    false # print help message    
# -v                    false # verbose operation     
# -d                    false # enable debug message  
# -i                    false # start in Dlite debugger
-seed                       1 # random number generator seed (0 for timer seed)
# -q                    false # initialize and terminate immediately
# -chkpt               <null> # restore EIO trace execution from <fname>
# -redir:sim     ../results/17_15_ruu/189.lucas.spec_ref.eio.gz.out # redirect simulator output to file (non-interactive only)
# -redir:prog       /dev/null # redirect simulated program output to file
-nice                       0 # simulator scheduling priority
-freq            600000000.0000 # frequency             
-max:inst           100000000 # maximum number of inst's to execute
-fastfwd                    0 # number of insts skipped before timing starts
# -ptrace              <null> # generate pipetrace, i.e., <fname|stdout|stderr> <range>
-fetch:ifqsize              4 # instruction fetch queue size (in insts)
-fetch:mplat               15 # extra branch mis-prediction latency
-fetch:speed                1 # speed of front-end of machine relative to execution core
-bpred                perfect # branch predictor type {nottaken|taken|perfect|bimod|2lev|comb}
-bpred:bimod     2048 # bimodal predictor config (<table size>)
-bpred:2lev      1 16384 4 0 # 2-level predictor config (<l1size> <l2size> <hist_size> <xor>)
-bpred:comb      1024 # combining predictor config (<meta_table_size>)
-bpred:ras                  8 # return address stack size (0 for no return stack)
-bpred:btb       512 4 # BTB config (<num_sets> <associativity>)
# -bpred:spec_update       <null> # speculative predictors update in {ID|WB} (default non-spec)
-decode:width               4 # instruction decode B/W (insts/cycle)
-issue:width                4 # instruction issue B/W (insts/cycle)
-issue:inorder          false # run pipeline with in-order issue
-issue:wrongpath         true # issue instructions down wrong execution paths
-commit:width               4 # instruction commit B/W (insts/cycle)
-ruu:size                  64 # register update unit (RUU) size
-lsq:size                   8 # load/store queue (LSQ) size
-cache:dl1       dl1:32:64:8:f # l1 data cache config, i.e., {<config>|none}
-cache:dl1lat               1 # l1 data cache hit latency (in cycles)
-cache:dl2       dl2:256:64:8:f # l2 data cache config, i.e., {<config>|none}
-cache:dl2lat               2 # l2 data cache hit latency (in cycles)
-cache:il1       il1:32:64:8:f # l1 inst cache config, i.e., {<config>|dl1|dl2|none}
-cache:il1lat               1 # l1 instruction cache hit latency (in cycles)
-cache:il2                dl2 # l2 instruction cache config, i.e., {<config>|dl2|none}
-cache:il2lat               2 # l2 instruction cache hit latency (in cycles)
-cache:flush            false # flush caches on system calls
-cache:icompress        false # convert 64-bit inst addresses to 32-bit inst equivalents
-mem:lat         103 1 # memory access latency (<first_chunk> <inter_chunk>)
-mem:width                  8 # memory access bus width (in bytes)
-tlb:itlb        itlb:16:4096:4:l # instruction TLB config, i.e., {<config>|none}
-tlb:dtlb        dtlb:32:4096:4:l # data TLB config, i.e., {<config>|none}
-tlb:lat                   30 # inst/data TLB miss latency (in cycles)
-res:ialu                   4 # total number of integer ALU's available
-res:imult                  1 # total number of integer multiplier/dividers available
-res:memport                2 # total number of memory system ports available (to CPU)
-res:fpalu                  4 # total number of floating point ALU's available
-res:fpmult                 1 # total number of floating point multiplier/dividers available
# -pcstat              <null> # profile stat(s) against text addr's (mult uses ok)
-bugcompat              false # operate in backward-compatible bugs mode (for testing only)

  Pipetrace range arguments are formatted as follows:

    {{@|#}<start>}:{{@|#|+}<end>}

  Both ends of the range are optional, if neither are specified, the entire
  execution is traced.  Ranges that start with a `@' designate an address
  range to be traced, those that start with an `#' designate a cycle count
  range.  All other range values represent an instruction count range.  The
  second argument, if specified with a `+', indicates a value relative
  to the first argument, e.g., 1000:+100 == 1000:1100.  Program symbols may
  be used in all contexts.

    Examples:   -ptrace FOO.trc #0:#1000
                -ptrace BAR.trc @2000:
                -ptrace BLAH.trc :1500
                -ptrace UXXE.trc :
                -ptrace FOOBAR.trc @main:+278

  Branch predictor configuration examples for 2-level predictor:
    Configurations:   N, M, W, X
      N   # entries in first level (# of shift register(s))
      W   width of shift register(s)
      M   # entries in 2nd level (# of counters, or other FSM)
      X   (yes-1/no-0) xor history and address for 2nd level index
    Sample predictors:
      GAg     : 1, W, 2^W, 0
      GAp     : 1, W, M (M > 2^W), 0
      PAg     : N, W, 2^W, 0
      PAp     : N, W, M (M == 2^(N+W)), 0
      gshare  : 1, W, 2^W, 1
  Predictor `comb' combines a bimodal and a 2-level predictor.

  The cache config parameter <config> has the following format:

    <name>:<nsets>:<bsize>:<assoc>:<repl>

    <name>   - name of the cache being defined
    <nsets>  - number of sets in the cache
    <bsize>  - block size of the cache
    <assoc>  - associativity of the cache
    <repl>   - block replacement strategy, 'l'-LRU, 'f'-FIFO, 'r'-random

    Examples:   -cache:dl1 dl1:4096:32:1:l
                -dtlb dtlb:128:4096:32:r

  Cache levels can be unified by pointing a level of the instruction cache
  hierarchy at the data cache hiearchy using the "dl1" and "dl2" cache
  configuration arguments.  Most sensible combinations are supported, e.g.,

    A unified l2 cache (il2 is pointed at dl2):
      -cache:il1 il1:128:64:1:l -cache:il2 dl2
      -cache:dl1 dl1:256:32:1:l -cache:dl2 ul2:1024:64:2:l

    Or, a fully unified cache hierarchy (il1 pointed at dl1):
      -cache:il1 dl1
      -cache:dl1 ul1:256:32:1:l -cache:dl2 ul2:1024:64:2:l



sim: ** starting performance simulation **

sim: ** simulation statistics **
sim_num_insn              100000003 # total number of instructions committed
sim_num_refs               21033648 # total number of loads and stores committed
sim_num_loads              12507760 # total number of loads committed
sim_num_stores         8525888.0000 # total number of stores committed
sim_num_branches             540218 # total number of branches committed
sim_elapsed_time                126 # total simulation time in seconds
sim_inst_rate           793650.8175 # simulation speed (in insts/sec)
sim_total_insn            100000003 # total number of instructions executed
sim_total_refs             21033648 # total number of loads and stores executed
sim_total_loads            12507760 # total number of loads executed
sim_total_stores       8525888.0000 # total number of stores executed
sim_total_branches           540218 # total number of branches executed
sim_cycle                 111138024 # total simulation time in cycles
sim_IPC                      0.8998 # instructions per cycle
sim_CPI                      1.1114 # cycles per instruction
sim_exec_BW                  0.8998 # total instructions (mis-spec + committed) per cycle
sim_IPB                    185.1105 # instruction per branch
IFQ_count                 444532065 # cumulative IFQ occupancy
IFQ_fcount                111132960 # cumulative IFQ full count
ifq_occupancy                3.9998 # avg IFQ occupancy (insn's)
ifq_rate                     0.8998 # avg IFQ dispatch rate (insn/cycle)
ifq_latency                  4.4453 # avg IFQ occupant latency (cycle's)
ifq_full                     1.0000 # fraction of time (cycle's) IFQ was full
RUU_count                3201214436 # cumulative RUU occupancy
RUU_fcount                 13239655 # cumulative RUU full count
ruu_occupancy               28.8040 # avg RUU occupancy (insn's)
ruu_rate                     0.8998 # avg RUU dispatch rate (insn/cycle)
ruu_latency                 32.0121 # avg RUU occupant latency (cycle's)
ruu_full                     0.1191 # fraction of time (cycle's) RUU was full
LSQ_count                 799574611 # cumulative LSQ occupancy
LSQ_fcount                 82342045 # cumulative LSQ full count
lsq_occupancy                7.1944 # avg LSQ occupancy (insn's)
lsq_rate                     0.8998 # avg LSQ dispatch rate (insn/cycle)
lsq_latency                  7.9957 # avg LSQ occupant latency (cycle's)
lsq_full                     0.7409 # fraction of time (cycle's) LSQ was full
sim_slip                 4121821800 # total number of slip cycles
avg_sim_slip                41.2182 # the average slip between issue and retirement
il1.accesses              101389890 # total number of accesses
il1.hits                  101389844 # total number of hits
il1.misses                       46 # total number of misses
il1.replacements                  0 # total number of replacements
il1.writebacks                    0 # total number of writebacks
il1.invalidations                 0 # total number of invalidations
il1.miss_rate                0.0000 # miss rate (i.e., misses/ref)
il1.repl_rate                0.0000 # replacement rate (i.e., repls/ref)
il1.wb_rate                  0.0000 # writeback rate (i.e., wrbks/ref)
il1.inv_rate                 0.0000 # invalidation rate (i.e., invs/ref)
dl1.accesses               21033648 # total number of accesses
dl1.hits                   18856436 # total number of hits
dl1.misses                  2177212 # total number of misses
dl1.replacements            2176956 # total number of replacements
dl1.writebacks              1065634 # total number of writebacks
dl1.invalidations                 0 # total number of invalidations
dl1.miss_rate                0.1035 # miss rate (i.e., misses/ref)
dl1.repl_rate                0.1035 # replacement rate (i.e., repls/ref)
dl1.wb_rate                  0.0507 # writeback rate (i.e., wrbks/ref)
dl1.inv_rate                 0.0000 # invalidation rate (i.e., invs/ref)
dl2.accesses                3242892 # total number of accesses
dl2.hits                    1103274 # total number of hits
dl2.misses                  2139618 # total number of misses
dl2.replacements            2137570 # total number of replacements
dl2.writebacks              1064746 # total number of writebacks
dl2.invalidations                 0 # total number of invalidations
dl2.miss_rate                0.6598 # miss rate (i.e., misses/ref)
dl2.repl_rate                0.6592 # replacement rate (i.e., repls/ref)
dl2.wb_rate                  0.3283 # writeback rate (i.e., wrbks/ref)
dl2.inv_rate                 0.0000 # invalidation rate (i.e., invs/ref)
itlb.accesses             101389890 # total number of accesses
itlb.hits                 101389888 # total number of hits
itlb.misses                       2 # total number of misses
itlb.replacements                 0 # total number of replacements
itlb.writebacks                   0 # total number of writebacks
itlb.invalidations                0 # total number of invalidations
itlb.miss_rate               0.0000 # miss rate (i.e., misses/ref)
itlb.repl_rate               0.0000 # replacement rate (i.e., repls/ref)
itlb.wb_rate                 0.0000 # writeback rate (i.e., wrbks/ref)
itlb.inv_rate                0.0000 # invalidation rate (i.e., invs/ref)
dtlb.accesses              21033648 # total number of accesses
dtlb.hits                  13779365 # total number of hits
dtlb.misses                 7254283 # total number of misses
dtlb.replacements           7254155 # total number of replacements
dtlb.writebacks                   0 # total number of writebacks
dtlb.invalidations                0 # total number of invalidations
dtlb.miss_rate               0.3449 # miss rate (i.e., misses/ref)
dtlb.repl_rate               0.3449 # replacement rate (i.e., repls/ref)
dtlb.wb_rate                 0.0000 # writeback rate (i.e., wrbks/ref)
dtlb.inv_rate                0.0000 # invalidation rate (i.e., invs/ref)
rename_power           61197642.6779 # total power usage of rename unit
bpred_power            370810741.6212 # total power usage of bpred unit
window_power           651137284.8486 # total power usage of instruction window
lsq_power              180396908.6416 # total power usage of load/store queue
regfile_power          397037489.9356 # total power usage of arch. regfile
icache_power           337033065.3647 # total power usage of icache
dcache_power           715583926.9843 # total power usage of dcache
dcache2_power          344858707.4197 # total power usage of dcache2
alu_power              2105084811.2632 # total power usage of alu
falu_power             1587167117.3725 # total power usage of falu
resultbus_power        405054482.7752 # total power usage of resultbus
clock_power            3256658065.2519 # total power usage of clock
avg_rename_power             0.5506 # avg power usage of rename unit
avg_bpred_power              3.3365 # avg power usage of bpred unit
avg_window_power             5.8588 # avg power usage of instruction window
avg_lsq_power                1.6232 # avg power usage of lsq
avg_regfile_power            3.5725 # avg power usage of arch. regfile
avg_icache_power             3.0326 # avg power usage of icache
avg_dcache_power             6.4387 # avg power usage of dcache
avg_dcache2_power            3.1030 # avg power usage of dcache2
avg_alu_power               18.9412 # avg power usage of alu
avg_falu_power              14.2810 # avg power usage of falu
avg_resultbus_power          3.6446 # avg power usage of resultbus
avg_clock_power             29.3028 # avg power usage of clock
fetch_stage_power      707843806.9859 # total power usage of fetch stage
dispatch_stage_power   61197642.6779 # total power usage of dispatch stage
issue_stage_power      4402116121.9327 # total power usage of issue stage
avg_fetch_power              6.3691 # average power of fetch unit per cycle
avg_dispatch_power           0.5506 # average power of dispatch unit per cycle
avg_issue_power             39.6095 # average power of issue unit per cycle
total_power            8824853126.7840 # total power per cycle
avg_total_power_cycle       79.4044 # average total power per cycle
avg_total_power_cycle_nofp_nod2      62.0204 # average total power per cycle
avg_total_power_insn        88.2485 # average total power per insn
avg_total_power_insn_nofp_nod2      68.9283 # average total power per insn
rename_power_cc1       18077194.7924 # total power usage of rename unit_cc1
bpred_power_cc1              0.0000 # total power usage of bpred unit_cc1
window_power_cc1       247896599.7153 # total power usage of instruction window_cc1
lsq_power_cc1          8970150.9701 # total power usage of lsq_cc1
regfile_power_cc1      129478558.6227 # total power usage of arch. regfile_cc1
icache_power_cc1       99556449.2400 # total power usage of icache_cc1
dcache_power_cc1       84938273.5468 # total power usage of dcache_cc1
dcache2_power_cc1      6585663.2602 # total power usage of dcache2_cc1
alu_power_cc1          558786187.1842 # total power usage of alu_cc1
resultbus_power_cc1    146054200.3075 # total power usage of resultbus_cc1
clock_power_cc1        796134557.0026 # total power usage of clock_cc1
avg_rename_power_cc1         0.1627 # avg power usage of rename unit_cc1
avg_bpred_power_cc1          0.0000 # avg power usage of bpred unit_cc1
avg_window_power_cc1         2.2305 # avg power usage of instruction window_cc1
avg_lsq_power_cc1            0.0807 # avg power usage of lsq_cc1
avg_regfile_power_cc1        1.1650 # avg power usage of arch. regfile_cc1
avg_icache_power_cc1         0.8958 # avg power usage of icache_cc1
avg_dcache_power_cc1         0.7643 # avg power usage of dcache_cc1
avg_dcache2_power_cc1        0.0593 # avg power usage of dcache2_cc1
avg_alu_power_cc1            5.0279 # avg power usage of alu_cc1
avg_resultbus_power_cc1       1.3142 # avg power usage of resultbus_cc1
avg_clock_power_cc1          7.1635 # avg power usage of clock_cc1
fetch_stage_power_cc1  99556449.2400 # total power usage of fetch stage_cc1
dispatch_stage_power_cc1 18077194.7924 # total power usage of dispatch stage_cc1
issue_stage_power_cc1  1053231074.9842 # total power usage of issue stage_cc1
avg_fetch_power_cc1          0.8958 # average power of fetch unit per cycle_cc1
avg_dispatch_power_cc1       0.1627 # average power of dispatch unit per cycle_cc1
avg_issue_power_cc1          9.4768 # average power of issue unit per cycle_cc1
total_power_cycle_cc1  2096477834.6419 # total power per cycle_cc1
avg_total_power_cycle_cc1      18.8637 # average total power per cycle_cc1
avg_total_power_insn_cc1      20.9648 # average total power per insn_cc1
rename_power_cc2       13766135.5973 # total power usage of rename unit_cc2
bpred_power_cc2              0.0000 # total power usage of bpred unit_cc2
window_power_cc2       187349979.8067 # total power usage of instruction window_cc2
lsq_power_cc2          7252368.1098 # total power usage of lsq_cc2
regfile_power_cc2      46986805.8991 # total power usage of arch. regfile_cc2
icache_power_cc2       99556449.2400 # total power usage of icache_cc2
dcache_power_cc2       67714630.3320 # total power usage of dcache_cc2
dcache2_power_cc2      5031309.2752 # total power usage of dcache2_cc2
alu_power_cc2          275447887.3665 # total power usage of alu_cc2
resultbus_power_cc2    95643186.1921 # total power usage of resultbus_cc2
clock_power_cc2        490617183.7172 # total power usage of clock_cc2
avg_rename_power_cc2         0.1239 # avg power usage of rename unit_cc2
avg_bpred_power_cc2          0.0000 # avg power usage of bpred unit_cc2
avg_window_power_cc2         1.6857 # avg power usage of instruction window_cc2
avg_lsq_power_cc2            0.0653 # avg power usage of instruction lsq_cc2
avg_regfile_power_cc2        0.4228 # avg power usage of arch. regfile_cc2
avg_icache_power_cc2         0.8958 # avg power usage of icache_cc2
avg_dcache_power_cc2         0.6093 # avg power usage of dcache_cc2
avg_dcache2_power_cc2        0.0453 # avg power usage of dcache2_cc2
avg_alu_power_cc2            2.4784 # avg power usage of alu_cc2
avg_resultbus_power_cc2       0.8606 # avg power usage of resultbus_cc2
avg_clock_power_cc2          4.4145 # avg power usage of clock_cc2
fetch_stage_power_cc2  99556449.2400 # total power usage of fetch stage_cc2
dispatch_stage_power_cc2 13766135.5973 # total power usage of dispatch stage_cc2
issue_stage_power_cc2  638439361.0823 # total power usage of issue stage_cc2
avg_fetch_power_cc2          0.8958 # average power of fetch unit per cycle_cc2
avg_dispatch_power_cc2       0.1239 # average power of dispatch unit per cycle_cc2
avg_issue_power_cc2          5.7446 # average power of issue unit per cycle_cc2
total_power_cycle_cc2  1289365935.5359 # total power per cycle_cc2
avg_total_power_cycle_cc2      11.6015 # average total power per cycle_cc2
avg_total_power_insn_cc2      12.8937 # average total power per insn_cc2
rename_power_cc3       18078180.3485 # total power usage of rename unit_cc3
bpred_power_cc3        37081074.1581 # total power usage of bpred unit_cc3
window_power_cc3       226282866.7182 # total power usage of instruction window_cc3
lsq_power_cc3          24412301.4040 # total power usage of lsq_cc3
regfile_power_cc3      72070131.0480 # total power usage of arch. regfile_cc3
icache_power_cc3       123304110.7825 # total power usage of icache_cc3
dcache_power_cc3       131183920.2017 # total power usage of dcache_cc3
dcache2_power_cc3      38864492.2838 # total power usage of dcache2_cc3
alu_power_cc3          430077749.4431 # total power usage of alu_cc3
resultbus_power_cc3    121082364.2784 # total power usage of resultbus_cc3
clock_power_cc3        734869294.8602 # total power usage of clock_cc3
avg_rename_power_cc3         0.1627 # avg power usage of rename unit_cc3
avg_bpred_power_cc3          0.3336 # avg power usage of bpred unit_cc3
avg_window_power_cc3         2.0361 # avg power usage of instruction window_cc3
avg_lsq_power_cc3            0.2197 # avg power usage of instruction lsq_cc3
avg_regfile_power_cc3        0.6485 # avg power usage of arch. regfile_cc3
avg_icache_power_cc3         1.1095 # avg power usage of icache_cc3
avg_dcache_power_cc3         1.1804 # avg power usage of dcache_cc3
avg_dcache2_power_cc3        0.3497 # avg power usage of dcache2_cc3
avg_alu_power_cc3            3.8698 # avg power usage of alu_cc3
avg_resultbus_power_cc3       1.0895 # avg power usage of resultbus_cc3
avg_clock_power_cc3          6.6122 # avg power usage of clock_cc3
fetch_stage_power_cc3  160385184.9405 # total power usage of fetch stage_cc3
dispatch_stage_power_cc3 18078180.3485 # total power usage of dispatch stage_cc3
issue_stage_power_cc3  971903694.3294 # total power usage of issue stage_cc3
avg_fetch_power_cc3          1.4431 # average power of fetch unit per cycle_cc3
avg_dispatch_power_cc3       0.1627 # average power of dispatch unit per cycle_cc3
avg_issue_power_cc3          8.7450 # average power of issue unit per cycle_cc3
total_power_cycle_cc3  1957306485.5266 # total power per cycle_cc3
avg_total_power_cycle_cc3      17.6115 # average total power per cycle_cc3
avg_total_power_insn_cc3      19.5731 # average total power per insn_cc3
total_rename_access       100000003 # total number accesses of rename unit
total_bpred_access                0 # total number accesses of bpred unit
total_window_access       328122412 # total number accesses of instruction window
total_lsq_access           21033648 # total number accesses of load/store queue
total_regfile_access      179190405 # total number accesses of arch. regfile
total_icache_access       101389890 # total number accesses of icache
total_dcache_access        21033648 # total number accesses of dcache
total_dcache2_access        3242892 # total number accesses of dcache2
total_alu_access           99999962 # total number accesses of alu
total_resultbus_access    111967499 # total number accesses of resultbus
avg_rename_access            0.8998 # avg number accesses of rename unit
avg_bpred_access             0.0000 # avg number accesses of bpred unit
avg_window_access            2.9524 # avg number accesses of instruction window
avg_lsq_access               0.1893 # avg number accesses of lsq
avg_regfile_access           1.6123 # avg number accesses of arch. regfile
avg_icache_access            0.9123 # avg number accesses of icache
avg_dcache_access            0.1893 # avg number accesses of dcache
avg_dcache2_access           0.0292 # avg number accesses of dcache2
avg_alu_access               0.8998 # avg number accesses of alu
avg_resultbus_access         1.0075 # avg number accesses of resultbus
max_rename_access                 4 # max number accesses of rename unit
max_bpred_access                  0 # max number accesses of bpred unit
max_window_access                16 # max number accesses of instruction window
max_lsq_access                    4 # max number accesses of load/store queue
max_regfile_access               12 # max number accesses of arch. regfile
max_icache_access                 4 # max number accesses of icache
max_dcache_access                 4 # max number accesses of dcache
max_dcache2_access                4 # max number accesses of dcache2
max_alu_access                    4 # max number accesses of alu
max_resultbus_access              8 # max number accesses of resultbus
max_cycle_power_cc1         53.5397 # maximum cycle power usage of cc1
max_cycle_power_cc2         38.0055 # maximum cycle power usage of cc2
max_cycle_power_cc3         41.5547 # maximum cycle power usage of cc3
sim_invalid_addrs                 0 # total non-speculative bogus addresses seen (debug var)
ld_text_base           0x0120000000 # program text (code) segment base
ld_text_size                 851968 # program text (code) size in bytes
ld_data_base           0x0140000000 # program initialized data segment base
ld_data_size                 202720 # program init'ed `.data' and uninit'ed `.bss' size in bytes
ld_stack_base          0x011ff9b000 # program stack segment base (highest address in stack)
ld_stack_size                 16384 # program initial stack size
ld_prog_entry          0x012002288c # program entry point (initial PC)
ld_environ_base        0x011ff96b40 # program environment base address address
ld_target_big_endian              0 # target executable endian-ness, non-zero if big endian
mem.page_count                18335 # total number of pages allocated
mem.page_mem                146680k # total size of memory pages allocated
mem.ptab_misses               18413 # total first level page table misses
mem.ptab_accesses         835455820 # total page table accesses
mem.ptab_miss_rate           0.0000 # first level page table miss rate

