sim-outorder: SimpleScalar/Alpha Tool Set version 3.0 of August, 2003.
Copyright (c) 1994-2003 by Todd M. Austin, Ph.D. and SimpleScalar, LLC.
All Rights Reserved. This version of SimpleScalar is licensed for academic
non-commercial use.  No portion of this work may be used by any commercial
entity, or for any commercial purpose, without the prior written permission
of SimpleScalar, LLC (info@simplescalar.com).


Processor Parameters:
Issue Width: 4
Window Size: 64
Number of Virtual Registers: 32
Number of Physical Registers: 64
Datapath Width: 64
Total Power Consumption: 81.4044
Branch Predictor Power Consumption: 3.33649  (4.2%)
 branch target buffer power (W): 2.49493
 local predict power (W): 0.574771
 global predict power (W): 0.0996078
 chooser power (W): 0.0702439
 RAS power (W): 0.0969383
Rename Logic Power Consumption: 0.550645  (0.693%)
 Instruction Decode Power (W): 0.0159915
 RAT decode_power (W): 0.113514
 RAT wordline_power (W): 0.0400762
 RAT bitline_power (W): 0.370156
 DCL Comparators (W): 0.0109075
Instruction Window Power Consumption: 5.85882  (7.38%)
 tagdrive (W): 0.431765
 tagmatch (W): 0.187578
 Selection Logic (W): 0.0563711
 decode_power (W): 0.244146
 wordline_power (W): 0.0844643
 bitline_power (W): 4.85449
Load/Store Queue Power Consumption: 1.62318  (2.04%)
 tagdrive (W): 0.457232
 tagmatch (W): 0.100774
 decode_power (W): 0.00799577
 wordline_power (W): 0.0150119
 bitline_power (W): 1.04217
Arch. Register File Power Consumption: 3.57247  (4.5%)
 decode_power (W): 0.113514
 wordline_power (W): 0.0844643
 bitline_power (W): 3.37449
Result Bus Power Consumption: 3.64461  (4.59%)
Total Clock Power: 29.3028  (36.9%)
Int ALU Power: 4.66013  (5.87%)
FP ALU Power: 14.281  (18%)
Instruction Cache Power Consumption: 2.76773  (3.49%)
 decode_power (W): 0.151353
 wordline_power (W): 0.180479
 bitline_power (W): 1.42251
 senseamp_power (W): 0.768
 tagarray_power (W): 0.245382
Itlb_power (W): 0.264834 (0.334%)
Data Cache Power Consumption: 5.53546  (6.97%)
 decode_power (W): 0.302705
 wordline_power (W): 0.360958
 bitline_power (W): 2.84503
 senseamp_power (W): 1.536
 tagarray_power (W): 0.490764
Dtlb_power (W): 0.903238 (1.14%)
Level 2 Cache Power Consumption: 3.10298 (3.91%)
 decode_power (W): 0.19487
 wordline_power (W): 0.0430878
 bitline_power (W): 1.77274
 senseamp_power (W): 0.192
 tagarray_power (W): 0.900275
sim: loading EIO file: ../benchmarks/197.parser.spec_ref.eio.gz
sim: command line: ./sim-outorder -config ../configs/current.config ../benchmarks/197.parser.spec_ref.eio.gz 

sim: simulation started @ Tue Nov 24 10:28:10 2015, options follow:

sim-outorder: This simulator implements a very detailed out-of-order issue
superscalar processor with a two-level memory system and speculative
execution support.  This simulator is a performance simulator, tracking the
latency of all pipeline operations.

# -config                     # load configuration from a file
# -dumpconfig                 # dump configuration to a file
# -h                    false # print help message    
# -v                    false # verbose operation     
# -d                    false # enable debug message  
# -i                    false # start in Dlite debugger
-seed                       1 # random number generator seed (0 for timer seed)
# -q                    false # initialize and terminate immediately
# -chkpt               <null> # restore EIO trace execution from <fname>
# -redir:sim     ../results/17_15_ruu/197.parser.spec_ref.eio.gz.out # redirect simulator output to file (non-interactive only)
# -redir:prog       /dev/null # redirect simulated program output to file
-nice                       0 # simulator scheduling priority
-freq            600000000.0000 # frequency             
-max:inst           100000000 # maximum number of inst's to execute
-fastfwd                    0 # number of insts skipped before timing starts
# -ptrace              <null> # generate pipetrace, i.e., <fname|stdout|stderr> <range>
-fetch:ifqsize              4 # instruction fetch queue size (in insts)
-fetch:mplat               15 # extra branch mis-prediction latency
-fetch:speed                1 # speed of front-end of machine relative to execution core
-bpred                perfect # branch predictor type {nottaken|taken|perfect|bimod|2lev|comb}
-bpred:bimod     2048 # bimodal predictor config (<table size>)
-bpred:2lev      1 16384 4 0 # 2-level predictor config (<l1size> <l2size> <hist_size> <xor>)
-bpred:comb      1024 # combining predictor config (<meta_table_size>)
-bpred:ras                  8 # return address stack size (0 for no return stack)
-bpred:btb       512 4 # BTB config (<num_sets> <associativity>)
# -bpred:spec_update       <null> # speculative predictors update in {ID|WB} (default non-spec)
-decode:width               4 # instruction decode B/W (insts/cycle)
-issue:width                4 # instruction issue B/W (insts/cycle)
-issue:inorder          false # run pipeline with in-order issue
-issue:wrongpath         true # issue instructions down wrong execution paths
-commit:width               4 # instruction commit B/W (insts/cycle)
-ruu:size                  64 # register update unit (RUU) size
-lsq:size                   8 # load/store queue (LSQ) size
-cache:dl1       dl1:32:64:8:f # l1 data cache config, i.e., {<config>|none}
-cache:dl1lat               1 # l1 data cache hit latency (in cycles)
-cache:dl2       dl2:256:64:8:f # l2 data cache config, i.e., {<config>|none}
-cache:dl2lat               2 # l2 data cache hit latency (in cycles)
-cache:il1       il1:32:64:8:f # l1 inst cache config, i.e., {<config>|dl1|dl2|none}
-cache:il1lat               1 # l1 instruction cache hit latency (in cycles)
-cache:il2                dl2 # l2 instruction cache config, i.e., {<config>|dl2|none}
-cache:il2lat               2 # l2 instruction cache hit latency (in cycles)
-cache:flush            false # flush caches on system calls
-cache:icompress        false # convert 64-bit inst addresses to 32-bit inst equivalents
-mem:lat         103 1 # memory access latency (<first_chunk> <inter_chunk>)
-mem:width                  8 # memory access bus width (in bytes)
-tlb:itlb        itlb:16:4096:4:l # instruction TLB config, i.e., {<config>|none}
-tlb:dtlb        dtlb:32:4096:4:l # data TLB config, i.e., {<config>|none}
-tlb:lat                   30 # inst/data TLB miss latency (in cycles)
-res:ialu                   4 # total number of integer ALU's available
-res:imult                  1 # total number of integer multiplier/dividers available
-res:memport                2 # total number of memory system ports available (to CPU)
-res:fpalu                  4 # total number of floating point ALU's available
-res:fpmult                 1 # total number of floating point multiplier/dividers available
# -pcstat              <null> # profile stat(s) against text addr's (mult uses ok)
-bugcompat              false # operate in backward-compatible bugs mode (for testing only)

  Pipetrace range arguments are formatted as follows:

    {{@|#}<start>}:{{@|#|+}<end>}

  Both ends of the range are optional, if neither are specified, the entire
  execution is traced.  Ranges that start with a `@' designate an address
  range to be traced, those that start with an `#' designate a cycle count
  range.  All other range values represent an instruction count range.  The
  second argument, if specified with a `+', indicates a value relative
  to the first argument, e.g., 1000:+100 == 1000:1100.  Program symbols may
  be used in all contexts.

    Examples:   -ptrace FOO.trc #0:#1000
                -ptrace BAR.trc @2000:
                -ptrace BLAH.trc :1500
                -ptrace UXXE.trc :
                -ptrace FOOBAR.trc @main:+278

  Branch predictor configuration examples for 2-level predictor:
    Configurations:   N, M, W, X
      N   # entries in first level (# of shift register(s))
      W   width of shift register(s)
      M   # entries in 2nd level (# of counters, or other FSM)
      X   (yes-1/no-0) xor history and address for 2nd level index
    Sample predictors:
      GAg     : 1, W, 2^W, 0
      GAp     : 1, W, M (M > 2^W), 0
      PAg     : N, W, 2^W, 0
      PAp     : N, W, M (M == 2^(N+W)), 0
      gshare  : 1, W, 2^W, 1
  Predictor `comb' combines a bimodal and a 2-level predictor.

  The cache config parameter <config> has the following format:

    <name>:<nsets>:<bsize>:<assoc>:<repl>

    <name>   - name of the cache being defined
    <nsets>  - number of sets in the cache
    <bsize>  - block size of the cache
    <assoc>  - associativity of the cache
    <repl>   - block replacement strategy, 'l'-LRU, 'f'-FIFO, 'r'-random

    Examples:   -cache:dl1 dl1:4096:32:1:l
                -dtlb dtlb:128:4096:32:r

  Cache levels can be unified by pointing a level of the instruction cache
  hierarchy at the data cache hiearchy using the "dl1" and "dl2" cache
  configuration arguments.  Most sensible combinations are supported, e.g.,

    A unified l2 cache (il2 is pointed at dl2):
      -cache:il1 il1:128:64:1:l -cache:il2 dl2
      -cache:dl1 dl1:256:32:1:l -cache:dl2 ul2:1024:64:2:l

    Or, a fully unified cache hierarchy (il1 pointed at dl1):
      -cache:il1 dl1
      -cache:dl1 ul1:256:32:1:l -cache:dl2 ul2:1024:64:2:l



sim: ** starting performance simulation **

sim: ** simulation statistics **
sim_num_insn              100000000 # total number of instructions committed
sim_num_refs               36930324 # total number of loads and stores committed
sim_num_loads              27152726 # total number of loads committed
sim_num_stores         9777598.0000 # total number of stores committed
sim_num_branches           15299216 # total number of branches committed
sim_elapsed_time                111 # total simulation time in seconds
sim_inst_rate           900900.9009 # simulation speed (in insts/sec)
sim_total_insn            100000000 # total number of instructions executed
sim_total_refs             36930324 # total number of loads and stores executed
sim_total_loads            27152726 # total number of loads executed
sim_total_stores       9777598.0000 # total number of stores executed
sim_total_branches         15299216 # total number of branches executed
sim_cycle                  98114856 # total simulation time in cycles
sim_IPC                      1.0192 # instructions per cycle
sim_CPI                      0.9811 # cycles per instruction
sim_exec_BW                  1.0192 # total instructions (mis-spec + committed) per cycle
sim_IPB                      6.5363 # instruction per branch
IFQ_count                 390327799 # cumulative IFQ occupancy
IFQ_fcount                 97579603 # cumulative IFQ full count
ifq_occupancy                3.9783 # avg IFQ occupancy (insn's)
ifq_rate                     1.0192 # avg IFQ dispatch rate (insn/cycle)
ifq_latency                  3.9033 # avg IFQ occupant latency (cycle's)
ifq_full                     0.9945 # fraction of time (cycle's) IFQ was full
RUU_count                2428651972 # cumulative RUU occupancy
RUU_fcount                  5282143 # cumulative RUU full count
ruu_occupancy               24.7532 # avg RUU occupancy (insn's)
ruu_rate                     1.0192 # avg RUU dispatch rate (insn/cycle)
ruu_latency                 24.2865 # avg RUU occupant latency (cycle's)
ruu_full                     0.0538 # fraction of time (cycle's) RUU was full
LSQ_count                 687579225 # cumulative LSQ occupancy
LSQ_fcount                 71513623 # cumulative LSQ full count
lsq_occupancy                7.0079 # avg LSQ occupancy (insn's)
lsq_rate                     1.0192 # avg LSQ dispatch rate (insn/cycle)
lsq_latency                  6.8758 # avg LSQ occupant latency (cycle's)
lsq_full                     0.7289 # fraction of time (cycle's) LSQ was full
sim_slip                 3253160530 # total number of slip cycles
avg_sim_slip                32.5316 # the average slip between issue and retirement
il1.accesses              116487757 # total number of accesses
il1.hits                  116482821 # total number of hits
il1.misses                     4936 # total number of misses
il1.replacements               4680 # total number of replacements
il1.writebacks                    0 # total number of writebacks
il1.invalidations                 0 # total number of invalidations
il1.miss_rate                0.0000 # miss rate (i.e., misses/ref)
il1.repl_rate                0.0000 # replacement rate (i.e., repls/ref)
il1.wb_rate                  0.0000 # writeback rate (i.e., wrbks/ref)
il1.inv_rate                 0.0000 # invalidation rate (i.e., invs/ref)
dl1.accesses               36726278 # total number of accesses
dl1.hits                   35406783 # total number of hits
dl1.misses                  1319495 # total number of misses
dl1.replacements            1319239 # total number of replacements
dl1.writebacks               461697 # total number of writebacks
dl1.invalidations                 0 # total number of invalidations
dl1.miss_rate                0.0359 # miss rate (i.e., misses/ref)
dl1.repl_rate                0.0359 # replacement rate (i.e., repls/ref)
dl1.wb_rate                  0.0126 # writeback rate (i.e., wrbks/ref)
dl1.inv_rate                 0.0000 # invalidation rate (i.e., invs/ref)
dl2.accesses                1786128 # total number of accesses
dl2.hits                    1156347 # total number of hits
dl2.misses                   629781 # total number of misses
dl2.replacements             627733 # total number of replacements
dl2.writebacks               328767 # total number of writebacks
dl2.invalidations                 0 # total number of invalidations
dl2.miss_rate                0.3526 # miss rate (i.e., misses/ref)
dl2.repl_rate                0.3514 # replacement rate (i.e., repls/ref)
dl2.wb_rate                  0.1841 # writeback rate (i.e., wrbks/ref)
dl2.inv_rate                 0.0000 # invalidation rate (i.e., invs/ref)
itlb.accesses             116487757 # total number of accesses
itlb.hits                 116487718 # total number of hits
itlb.misses                      39 # total number of misses
itlb.replacements                 0 # total number of replacements
itlb.writebacks                   0 # total number of writebacks
itlb.invalidations                0 # total number of invalidations
itlb.miss_rate               0.0000 # miss rate (i.e., misses/ref)
itlb.repl_rate               0.0000 # replacement rate (i.e., repls/ref)
itlb.wb_rate                 0.0000 # writeback rate (i.e., wrbks/ref)
itlb.inv_rate                0.0000 # invalidation rate (i.e., invs/ref)
dtlb.accesses              36930323 # total number of accesses
dtlb.hits                  36883664 # total number of hits
dtlb.misses                   46659 # total number of misses
dtlb.replacements             46531 # total number of replacements
dtlb.writebacks                   0 # total number of writebacks
dtlb.invalidations                0 # total number of invalidations
dtlb.miss_rate               0.0013 # miss rate (i.e., misses/ref)
dtlb.repl_rate               0.0013 # replacement rate (i.e., repls/ref)
dtlb.wb_rate                 0.0000 # writeback rate (i.e., wrbks/ref)
dtlb.inv_rate                0.0000 # invalidation rate (i.e., invs/ref)
rename_power           54026494.9818 # total power usage of rename unit
bpred_power            327359090.7704 # total power usage of bpred unit
window_power           574836933.2297 # total power usage of instruction window
lsq_power              159257975.5896 # total power usage of load/store queue
regfile_power          350512585.6607 # total power usage of arch. regfile
icache_power           297539487.5451 # total power usage of icache
dcache_power           631731710.0313 # total power usage of dcache
dcache2_power          304448119.2660 # total power usage of dcache2
alu_power              1858410701.1195 # total power usage of alu
falu_power             1401182669.6425 # total power usage of falu
resultbus_power        357590146.4364 # total power usage of resultbus
clock_power            2875042452.7401 # total power usage of clock
avg_rename_power             0.5506 # avg power usage of rename unit
avg_bpred_power              3.3365 # avg power usage of bpred unit
avg_window_power             5.8588 # avg power usage of instruction window
avg_lsq_power                1.6232 # avg power usage of lsq
avg_regfile_power            3.5725 # avg power usage of arch. regfile
avg_icache_power             3.0326 # avg power usage of icache
avg_dcache_power             6.4387 # avg power usage of dcache
avg_dcache2_power            3.1030 # avg power usage of dcache2
avg_alu_power               18.9412 # avg power usage of alu
avg_falu_power              14.2810 # avg power usage of falu
avg_resultbus_power          3.6446 # avg power usage of resultbus
avg_clock_power             29.3028 # avg power usage of clock
fetch_stage_power      624898578.3154 # total power usage of fetch stage
dispatch_stage_power   54026494.9818 # total power usage of dispatch stage
issue_stage_power      3886275585.6725 # total power usage of issue stage
avg_fetch_power              6.3691 # average power of fetch unit per cycle
avg_dispatch_power           0.5506 # average power of dispatch unit per cycle
avg_issue_power             39.6095 # average power of issue unit per cycle
total_power            7790755697.3706 # total power per cycle
avg_total_power_cycle       79.4044 # average total power per cycle
avg_total_power_cycle_nofp_nod2      62.0204 # average total power per cycle
avg_total_power_insn        77.9076 # average total power per insn
avg_total_power_insn_nofp_nod2      60.8512 # average total power per insn
rename_power_cc1       20267047.7023 # total power usage of rename unit_cc1
bpred_power_cc1              0.0000 # total power usage of bpred unit_cc1
window_power_cc1       262476942.9207 # total power usage of instruction window_cc1
lsq_power_cc1          17996885.8730 # total power usage of lsq_cc1
regfile_power_cc1      131459438.4690 # total power usage of arch. regfile_cc1
icache_power_cc1       111626426.2587 # total power usage of icache_cc1
dcache_power_cc1       158231982.3315 # total power usage of dcache_cc1
dcache2_power_cc1      4061663.1667 # total power usage of dcache2_cc1
alu_power_cc1          200446105.1114 # total power usage of alu_cc1
resultbus_power_cc1    152813901.2538 # total power usage of resultbus_cc1
clock_power_cc1        482612133.3968 # total power usage of clock_cc1
avg_rename_power_cc1         0.2066 # avg power usage of rename unit_cc1
avg_bpred_power_cc1          0.0000 # avg power usage of bpred unit_cc1
avg_window_power_cc1         2.6752 # avg power usage of instruction window_cc1
avg_lsq_power_cc1            0.1834 # avg power usage of lsq_cc1
avg_regfile_power_cc1        1.3399 # avg power usage of arch. regfile_cc1
avg_icache_power_cc1         1.1377 # avg power usage of icache_cc1
avg_dcache_power_cc1         1.6127 # avg power usage of dcache_cc1
avg_dcache2_power_cc1        0.0414 # avg power usage of dcache2_cc1
avg_alu_power_cc1            2.0430 # avg power usage of alu_cc1
avg_resultbus_power_cc1       1.5575 # avg power usage of resultbus_cc1
avg_clock_power_cc1          4.9188 # avg power usage of clock_cc1
fetch_stage_power_cc1  111626426.2587 # total power usage of fetch stage_cc1
dispatch_stage_power_cc1 20267047.7023 # total power usage of dispatch stage_cc1
issue_stage_power_cc1  796027480.6571 # total power usage of issue stage_cc1
avg_fetch_power_cc1          1.1377 # average power of fetch unit per cycle_cc1
avg_dispatch_power_cc1       0.2066 # average power of dispatch unit per cycle_cc1
avg_issue_power_cc1          8.1132 # average power of issue unit per cycle_cc1
total_power_cycle_cc1  1541992526.4839 # total power per cycle_cc1
avg_total_power_cycle_cc1      15.7162 # average total power per cycle_cc1
avg_total_power_insn_cc1      15.4199 # average total power per insn_cc1
rename_power_cc2       13766135.1885 # total power usage of rename unit_cc2
bpred_power_cc2              0.0000 # total power usage of bpred unit_cc2
window_power_cc2       211477831.1401 # total power usage of instruction window_cc2
lsq_power_cc2          12269428.9766 # total power usage of lsq_cc2
regfile_power_cc2      36029210.1006 # total power usage of arch. regfile_cc2
icache_power_cc2       111626426.2587 # total power usage of icache_cc2
dcache_power_cc2       118234665.6747 # total power usage of dcache_cc2
dcache2_power_cc2      2771156.8480 # total power usage of dcache2_cc2
alu_power_cc2          116536596.4401 # total power usage of alu_cc2
resultbus_power_cc2    95545789.7184 # total power usage of resultbus_cc2
clock_power_cc2        335324116.4463 # total power usage of clock_cc2
avg_rename_power_cc2         0.1403 # avg power usage of rename unit_cc2
avg_bpred_power_cc2          0.0000 # avg power usage of bpred unit_cc2
avg_window_power_cc2         2.1554 # avg power usage of instruction window_cc2
avg_lsq_power_cc2            0.1251 # avg power usage of instruction lsq_cc2
avg_regfile_power_cc2        0.3672 # avg power usage of arch. regfile_cc2
avg_icache_power_cc2         1.1377 # avg power usage of icache_cc2
avg_dcache_power_cc2         1.2051 # avg power usage of dcache_cc2
avg_dcache2_power_cc2        0.0282 # avg power usage of dcache2_cc2
avg_alu_power_cc2            1.1878 # avg power usage of alu_cc2
avg_resultbus_power_cc2       0.9738 # avg power usage of resultbus_cc2
avg_clock_power_cc2          3.4177 # avg power usage of clock_cc2
fetch_stage_power_cc2  111626426.2587 # total power usage of fetch stage_cc2
dispatch_stage_power_cc2 13766135.1885 # total power usage of dispatch stage_cc2
issue_stage_power_cc2  556835468.7980 # total power usage of issue stage_cc2
avg_fetch_power_cc2          1.1377 # average power of fetch unit per cycle_cc2
avg_dispatch_power_cc2       0.1403 # average power of dispatch unit per cycle_cc2
avg_issue_power_cc2          5.6753 # average power of issue unit per cycle_cc2
total_power_cycle_cc2  1053581356.7920 # total power per cycle_cc2
avg_total_power_cycle_cc2      10.7382 # average total power per cycle_cc2
avg_total_power_insn_cc2      10.5358 # average total power per insn_cc2
rename_power_cc3       17142079.8915 # total power usage of rename unit_cc3
bpred_power_cc3        32735909.0924 # total power usage of bpred unit_cc3
window_power_cc3       242153990.8524 # total power usage of instruction window_cc3
lsq_power_cc3          26351446.6406 # total power usage of lsq_cc3
regfile_power_cc3      56443029.1533 # total power usage of arch. regfile_cc3
icache_power_cc3       130217732.3349 # total power usage of icache_cc3
dcache_power_cc3       166198869.1093 # total power usage of dcache_cc3
dcache2_power_cc3      32812752.0572 # total power usage of dcache2_cc3
alu_power_cc3          282333055.3978 # total power usage of alu_cc3
resultbus_power_cc3    115021338.8294 # total power usage of resultbus_cc3
clock_power_cc3        573765400.1228 # total power usage of clock_cc3
avg_rename_power_cc3         0.1747 # avg power usage of rename unit_cc3
avg_bpred_power_cc3          0.3336 # avg power usage of bpred unit_cc3
avg_window_power_cc3         2.4681 # avg power usage of instruction window_cc3
avg_lsq_power_cc3            0.2686 # avg power usage of instruction lsq_cc3
avg_regfile_power_cc3        0.5753 # avg power usage of arch. regfile_cc3
avg_icache_power_cc3         1.3272 # avg power usage of icache_cc3
avg_dcache_power_cc3         1.6939 # avg power usage of dcache_cc3
avg_dcache2_power_cc3        0.3344 # avg power usage of dcache2_cc3
avg_alu_power_cc3            2.8776 # avg power usage of alu_cc3
avg_resultbus_power_cc3       1.1723 # avg power usage of resultbus_cc3
avg_clock_power_cc3          5.8479 # avg power usage of clock_cc3
fetch_stage_power_cc3  162953641.4273 # total power usage of fetch stage_cc3
dispatch_stage_power_cc3 17142079.8915 # total power usage of dispatch stage_cc3
issue_stage_power_cc3  864871452.8867 # total power usage of issue stage_cc3
avg_fetch_power_cc3          1.6608 # average power of fetch unit per cycle_cc3
avg_dispatch_power_cc3       0.1747 # average power of dispatch unit per cycle_cc3
avg_issue_power_cc3          8.8149 # average power of issue unit per cycle_cc3
total_power_cycle_cc3  1675175603.4816 # total power per cycle_cc3
avg_total_power_cycle_cc3      17.0736 # average total power per cycle_cc3
avg_total_power_insn_cc3      16.7518 # average total power per insn_cc3
total_rename_access       100000000 # total number accesses of rename unit
total_bpred_access                0 # total number accesses of bpred unit
total_window_access       373241294 # total number accesses of instruction window
total_lsq_access           37134368 # total number accesses of load/store queue
total_regfile_access      135940217 # total number accesses of arch. regfile
total_icache_access       116487757 # total number accesses of icache
total_dcache_access        36726278 # total number accesses of dcache
total_dcache2_access        1786128 # total number accesses of dcache2
total_alu_access           99904100 # total number accesses of alu
total_resultbus_access    111853479 # total number accesses of resultbus
avg_rename_access            1.0192 # avg number accesses of rename unit
avg_bpred_access             0.0000 # avg number accesses of bpred unit
avg_window_access            3.8041 # avg number accesses of instruction window
avg_lsq_access               0.3785 # avg number accesses of lsq
avg_regfile_access           1.3855 # avg number accesses of arch. regfile
avg_icache_access            1.1873 # avg number accesses of icache
avg_dcache_access            0.3743 # avg number accesses of dcache
avg_dcache2_access           0.0182 # avg number accesses of dcache2
avg_alu_access               1.0182 # avg number accesses of alu
avg_resultbus_access         1.1400 # avg number accesses of resultbus
max_rename_access                 4 # max number accesses of rename unit
max_bpred_access                  0 # max number accesses of bpred unit
max_window_access                18 # max number accesses of instruction window
max_lsq_access                    6 # max number accesses of load/store queue
max_regfile_access               12 # max number accesses of arch. regfile
max_icache_access                 4 # max number accesses of icache
max_dcache_access                 4 # max number accesses of dcache
max_dcache2_access                5 # max number accesses of dcache2
max_alu_access                    4 # max number accesses of alu
max_resultbus_access              9 # max number accesses of resultbus
max_cycle_power_cc1         56.1580 # maximum cycle power usage of cc1
max_cycle_power_cc2         39.0709 # maximum cycle power usage of cc2
max_cycle_power_cc3         42.8524 # maximum cycle power usage of cc3
sim_invalid_addrs                 0 # total non-speculative bogus addresses seen (debug var)
ld_text_base           0x0120000000 # program text (code) segment base
ld_text_size                 319488 # program text (code) size in bytes
ld_data_base           0x0140000000 # program initialized data segment base
ld_data_size                 288480 # program init'ed `.data' and uninit'ed `.bss' size in bytes
ld_stack_base          0x011ff9b000 # program stack segment base (highest address in stack)
ld_stack_size                 16384 # program initial stack size
ld_prog_entry          0x012001e99c # program entry point (initial PC)
ld_environ_base        0x011ff966c0 # program environment base address address
ld_target_big_endian              0 # target executable endian-ness, non-zero if big endian
mem.page_count                 4714 # total number of pages allocated
mem.page_mem                 37712k # total size of memory pages allocated
mem.ptab_misses               31254 # total first level page table misses
mem.ptab_accesses         813354488 # total page table accesses
mem.ptab_miss_rate           0.0000 # first level page table miss rate

