#!/bin/bash

config_name=$1

config_dir="../configs"
benchmarks_dir="../benchmarks"
results_dir="../results"
sim_dir="."
username="cjs1993"

mkdir -p $results_dir/$config_name
config_values="$config_dir/$config_name.values"
config_file="$config_dir/current.config"

cat $config_values | while read line; do
  parameter=$(echo $line | awk '{print $1}')
  val=$(echo $line | awk '{$1=""; print $0}')
  sed -ri "s/$parameter .*/$parameter $val/g" $config_file
done

for benchmark in $benchmarks_dir/*.eio.gz; do
  results_file="$results_dir/$config_name/$(basename $benchmark).out"
  sed -ri 's|(-redir:sim[ ]+).*|\1'$results_file'|g' $config_file
  sed -ri 's|(-redir:prog[ ]+).*|\1/dev/null|g' $config_file
  $sim_dir/sim-outorder -config $config_file $benchmark &> /dev/null &
done

start_time=$(date -u +"%s")
while : ; do
  num_remaining=$(( $(ps ux | grep "$username.*sim-outorder" | wc -l) -1 ))
  [ $num_remaining -eq 0 ] && break
  cur_time=$(date -u +"%s")
  elapsed_time=$(( $cur_time - $start_time ))
  printf "Elapsed time: %3d, remaining benchmarks: %2d\n" $elapsed_time $num_remaining
  sleep 10
done

echo "$config_name done"
