sim-outorder: SimpleScalar/Alpha Tool Set version 3.0 of August, 2003.
Copyright (c) 1994-2003 by Todd M. Austin, Ph.D. and SimpleScalar, LLC.
All Rights Reserved. This version of SimpleScalar is licensed for academic
non-commercial use.  No portion of this work may be used by any commercial
entity, or for any commercial purpose, without the prior written permission
of SimpleScalar, LLC (info@simplescalar.com).


Processor Parameters:
Issue Width: 16
Window Size: 64
Number of Virtual Registers: 32
Number of Physical Registers: 64
Datapath Width: 64
Total Power Consumption: 228.388
Branch Predictor Power Consumption: 3.11615  (1.38%)
 branch target buffer power (W): 2.49493
 local predict power (W): 0.354432
 global predict power (W): 0.0996078
 chooser power (W): 0.0702439
 RAS power (W): 0.0969383
Rename Logic Power Consumption: 3.27072  (1.44%)
 Instruction Decode Power (W): 0.0639661
 RAT decode_power (W): 0.454058
 RAT wordline_power (W): 0.227603
 RAT bitline_power (W): 2.30694
 DCL Comparators (W): 0.218151
Instruction Window Power Consumption: 43.216  (19.1%)
 tagdrive (W): 2.9395
 tagmatch (W): 0.989695
 Selection Logic (W): 0.225484
 decode_power (W): 0.976583
 wordline_power (W): 1.0557
 bitline_power (W): 37.0291
Load/Store Queue Power Consumption: 6.22193  (2.75%)
 tagdrive (W): 2.49901
 tagmatch (W): 0.859464
 decode_power (W): 0.0756763
 wordline_power (W): 0.0433172
 bitline_power (W): 2.74446
Arch. Register File Power Consumption: 25.1387  (11.1%)
 decode_power (W): 0.454058
 wordline_power (W): 1.0557
 bitline_power (W): 23.629
Result Bus Power Consumption: 31.3281  (13.8%)
Total Clock Power: 61.8603  (27.3%)
Int ALU Power: 4.66013  (2.06%)
FP ALU Power: 28.5621  (12.6%)
Instruction Cache Power Consumption: 2.76773  (1.22%)
 decode_power (W): 0.151353
 wordline_power (W): 0.180479
 bitline_power (W): 1.42251
 senseamp_power (W): 0.768
 tagarray_power (W): 0.245382
Itlb_power (W): 0.264936 (0.117%)
Data Cache Power Consumption: 11.0709  (4.89%)
 decode_power (W): 0.60541
 wordline_power (W): 0.721917
 bitline_power (W): 5.69006
 senseamp_power (W): 3.072
 tagarray_power (W): 0.981529
Dtlb_power (W): 1.80688 (0.798%)
Level 2 Cache Power Consumption: 3.10298 (1.37%)
 decode_power (W): 0.19487
 wordline_power (W): 0.0430878
 bitline_power (W): 1.77274
 senseamp_power (W): 0.192
 tagarray_power (W): 0.900275
sim: loading EIO file: ../benchmarks/175.vpr.route-ref.eio.gz
sim: command line: ./sim-outorder -config ../configs/current.config ../benchmarks/175.vpr.route-ref.eio.gz 

sim: simulation started @ Tue Nov 24 13:57:53 2015, options follow:

sim-outorder: This simulator implements a very detailed out-of-order issue
superscalar processor with a two-level memory system and speculative
execution support.  This simulator is a performance simulator, tracking the
latency of all pipeline operations.

# -config                     # load configuration from a file
# -dumpconfig                 # dump configuration to a file
# -h                    false # print help message    
# -v                    false # verbose operation     
# -d                    false # enable debug message  
# -i                    false # start in Dlite debugger
-seed                       1 # random number generator seed (0 for timer seed)
# -q                    false # initialize and terminate immediately
# -chkpt               <null> # restore EIO trace execution from <fname>
# -redir:sim     ../results/30_23_lsq/175.vpr.route-ref.eio.gz.out # redirect simulator output to file (non-interactive only)
# -redir:prog       /dev/null # redirect simulated program output to file
-nice                       0 # simulator scheduling priority
-freq            600000000.0000 # frequency             
-max:inst           100000000 # maximum number of inst's to execute
-fastfwd                    0 # number of insts skipped before timing starts
# -ptrace              <null> # generate pipetrace, i.e., <fname|stdout|stderr> <range>
-fetch:ifqsize             16 # instruction fetch queue size (in insts)
-fetch:mplat               15 # extra branch mis-prediction latency
-fetch:speed                1 # speed of front-end of machine relative to execution core
-bpred                perfect # branch predictor type {nottaken|taken|perfect|bimod|2lev|comb}
-bpred:bimod     2048 # bimodal predictor config (<table size>)
-bpred:2lev      1 8192 8 0 # 2-level predictor config (<l1size> <l2size> <hist_size> <xor>)
-bpred:comb      1024 # combining predictor config (<meta_table_size>)
-bpred:ras                  8 # return address stack size (0 for no return stack)
-bpred:btb       512 4 # BTB config (<num_sets> <associativity>)
# -bpred:spec_update       <null> # speculative predictors update in {ID|WB} (default non-spec)
-decode:width              16 # instruction decode B/W (insts/cycle)
-issue:width               16 # instruction issue B/W (insts/cycle)
-issue:inorder          false # run pipeline with in-order issue
-issue:wrongpath         true # issue instructions down wrong execution paths
-commit:width              16 # instruction commit B/W (insts/cycle)
-ruu:size                  64 # register update unit (RUU) size
-lsq:size                  32 # load/store queue (LSQ) size
-cache:dl1       dl1:32:64:8:f # l1 data cache config, i.e., {<config>|none}
-cache:dl1lat               1 # l1 data cache hit latency (in cycles)
-cache:dl2       dl2:256:64:8:f # l2 data cache config, i.e., {<config>|none}
-cache:dl2lat               2 # l2 data cache hit latency (in cycles)
-cache:il1       il1:32:64:8:f # l1 inst cache config, i.e., {<config>|dl1|dl2|none}
-cache:il1lat               1 # l1 instruction cache hit latency (in cycles)
-cache:il2                dl2 # l2 instruction cache config, i.e., {<config>|dl2|none}
-cache:il2lat               2 # l2 instruction cache hit latency (in cycles)
-cache:flush            false # flush caches on system calls
-cache:icompress        false # convert 64-bit inst addresses to 32-bit inst equivalents
-mem:lat         103 1 # memory access latency (<first_chunk> <inter_chunk>)
-mem:width                  8 # memory access bus width (in bytes)
-tlb:itlb        itlb:16:4096:4:l # instruction TLB config, i.e., {<config>|none}
-tlb:dtlb        dtlb:32:4096:4:l # data TLB config, i.e., {<config>|none}
-tlb:lat                   30 # inst/data TLB miss latency (in cycles)
-res:ialu                   4 # total number of integer ALU's available
-res:imult                  2 # total number of integer multiplier/dividers available
-res:memport                4 # total number of memory system ports available (to CPU)
-res:fpalu                  8 # total number of floating point ALU's available
-res:fpmult                 2 # total number of floating point multiplier/dividers available
# -pcstat              <null> # profile stat(s) against text addr's (mult uses ok)
-bugcompat              false # operate in backward-compatible bugs mode (for testing only)

  Pipetrace range arguments are formatted as follows:

    {{@|#}<start>}:{{@|#|+}<end>}

  Both ends of the range are optional, if neither are specified, the entire
  execution is traced.  Ranges that start with a `@' designate an address
  range to be traced, those that start with an `#' designate a cycle count
  range.  All other range values represent an instruction count range.  The
  second argument, if specified with a `+', indicates a value relative
  to the first argument, e.g., 1000:+100 == 1000:1100.  Program symbols may
  be used in all contexts.

    Examples:   -ptrace FOO.trc #0:#1000
                -ptrace BAR.trc @2000:
                -ptrace BLAH.trc :1500
                -ptrace UXXE.trc :
                -ptrace FOOBAR.trc @main:+278

  Branch predictor configuration examples for 2-level predictor:
    Configurations:   N, M, W, X
      N   # entries in first level (# of shift register(s))
      W   width of shift register(s)
      M   # entries in 2nd level (# of counters, or other FSM)
      X   (yes-1/no-0) xor history and address for 2nd level index
    Sample predictors:
      GAg     : 1, W, 2^W, 0
      GAp     : 1, W, M (M > 2^W), 0
      PAg     : N, W, 2^W, 0
      PAp     : N, W, M (M == 2^(N+W)), 0
      gshare  : 1, W, 2^W, 1
  Predictor `comb' combines a bimodal and a 2-level predictor.

  The cache config parameter <config> has the following format:

    <name>:<nsets>:<bsize>:<assoc>:<repl>

    <name>   - name of the cache being defined
    <nsets>  - number of sets in the cache
    <bsize>  - block size of the cache
    <assoc>  - associativity of the cache
    <repl>   - block replacement strategy, 'l'-LRU, 'f'-FIFO, 'r'-random

    Examples:   -cache:dl1 dl1:4096:32:1:l
                -dtlb dtlb:128:4096:32:r

  Cache levels can be unified by pointing a level of the instruction cache
  hierarchy at the data cache hiearchy using the "dl1" and "dl2" cache
  configuration arguments.  Most sensible combinations are supported, e.g.,

    A unified l2 cache (il2 is pointed at dl2):
      -cache:il1 il1:128:64:1:l -cache:il2 dl2
      -cache:dl1 dl1:256:32:1:l -cache:dl2 ul2:1024:64:2:l

    Or, a fully unified cache hierarchy (il1 pointed at dl1):
      -cache:il1 dl1
      -cache:dl1 ul1:256:32:1:l -cache:dl2 ul2:1024:64:2:l



sim: ** starting performance simulation **

sim: ** simulation statistics **
sim_num_insn              100000013 # total number of instructions committed
sim_num_refs               44514750 # total number of loads and stores committed
sim_num_loads              32983684 # total number of loads committed
sim_num_stores         11531066.0000 # total number of stores committed
sim_num_branches           10718494 # total number of branches committed
sim_elapsed_time                176 # total simulation time in seconds
sim_inst_rate           568181.8920 # simulation speed (in insts/sec)
sim_total_insn            100000013 # total number of instructions executed
sim_total_refs             44514750 # total number of loads and stores executed
sim_total_loads            32983684 # total number of loads executed
sim_total_stores       11531066.0000 # total number of stores executed
sim_total_branches         10718494 # total number of branches executed
sim_cycle                 120963287 # total simulation time in cycles
sim_IPC                      0.8267 # instructions per cycle
sim_CPI                      1.2096 # cycles per instruction
sim_exec_BW                  0.8267 # total instructions (mis-spec + committed) per cycle
sim_IPB                      9.3297 # instruction per branch
IFQ_count                1935308909 # cumulative IFQ occupancy
IFQ_fcount                120956686 # cumulative IFQ full count
ifq_occupancy               15.9991 # avg IFQ occupancy (insn's)
ifq_rate                     0.8267 # avg IFQ dispatch rate (insn/cycle)
ifq_latency                 19.3531 # avg IFQ occupant latency (cycle's)
ifq_full                     0.9999 # fraction of time (cycle's) IFQ was full
RUU_count                7523305256 # cumulative RUU occupancy
RUU_fcount                 99801855 # cumulative RUU full count
ruu_occupancy               62.1949 # avg RUU occupancy (insn's)
ruu_rate                     0.8267 # avg RUU dispatch rate (insn/cycle)
ruu_latency                 75.2330 # avg RUU occupant latency (cycle's)
ruu_full                     0.8251 # fraction of time (cycle's) RUU was full
LSQ_count                3299124386 # cumulative LSQ occupancy
LSQ_fcount                 15230233 # cumulative LSQ full count
lsq_occupancy               27.2738 # avg LSQ occupancy (insn's)
lsq_rate                     0.8267 # avg LSQ dispatch rate (insn/cycle)
lsq_latency                 32.9912 # avg LSQ occupant latency (cycle's)
lsq_full                     0.1259 # fraction of time (cycle's) LSQ was full
sim_slip                10966943645 # total number of slip cycles
avg_sim_slip               109.6694 # the average slip between issue and retirement
il1.accesses              156395723 # total number of accesses
il1.hits                  156395663 # total number of hits
il1.misses                       60 # total number of misses
il1.replacements                  0 # total number of replacements
il1.writebacks                    0 # total number of writebacks
il1.invalidations                 0 # total number of invalidations
il1.miss_rate                0.0000 # miss rate (i.e., misses/ref)
il1.repl_rate                0.0000 # replacement rate (i.e., repls/ref)
il1.wb_rate                  0.0000 # writeback rate (i.e., wrbks/ref)
il1.inv_rate                 0.0000 # invalidation rate (i.e., invs/ref)
dl1.accesses               38537199 # total number of accesses
dl1.hits                   35599290 # total number of hits
dl1.misses                  2937909 # total number of misses
dl1.replacements            2937653 # total number of replacements
dl1.writebacks              1161735 # total number of writebacks
dl1.invalidations                 0 # total number of invalidations
dl1.miss_rate                0.0762 # miss rate (i.e., misses/ref)
dl1.repl_rate                0.0762 # replacement rate (i.e., repls/ref)
dl1.wb_rate                  0.0301 # writeback rate (i.e., wrbks/ref)
dl1.inv_rate                 0.0000 # invalidation rate (i.e., invs/ref)
dl2.accesses                4099704 # total number of accesses
dl2.hits                    2534418 # total number of hits
dl2.misses                  1565286 # total number of misses
dl2.replacements            1563238 # total number of replacements
dl2.writebacks               734348 # total number of writebacks
dl2.invalidations                 0 # total number of invalidations
dl2.miss_rate                0.3818 # miss rate (i.e., misses/ref)
dl2.repl_rate                0.3813 # replacement rate (i.e., repls/ref)
dl2.wb_rate                  0.1791 # writeback rate (i.e., wrbks/ref)
dl2.inv_rate                 0.0000 # invalidation rate (i.e., invs/ref)
itlb.accesses             156395723 # total number of accesses
itlb.hits                 156395721 # total number of hits
itlb.misses                       2 # total number of misses
itlb.replacements                 0 # total number of replacements
itlb.writebacks                   0 # total number of writebacks
itlb.invalidations                0 # total number of invalidations
itlb.miss_rate               0.0000 # miss rate (i.e., misses/ref)
itlb.repl_rate               0.0000 # replacement rate (i.e., repls/ref)
itlb.wb_rate                 0.0000 # writeback rate (i.e., wrbks/ref)
itlb.inv_rate                0.0000 # invalidation rate (i.e., invs/ref)
dtlb.accesses              44514725 # total number of accesses
dtlb.hits                  43140301 # total number of hits
dtlb.misses                 1374424 # total number of misses
dtlb.replacements           1374296 # total number of replacements
dtlb.writebacks                   0 # total number of writebacks
dtlb.invalidations                0 # total number of invalidations
dtlb.miss_rate               0.0309 # miss rate (i.e., misses/ref)
dtlb.repl_rate               0.0309 # replacement rate (i.e., repls/ref)
dtlb.wb_rate                 0.0000 # writeback rate (i.e., wrbks/ref)
dtlb.inv_rate                0.0000 # invalidation rate (i.e., invs/ref)
rename_power           395636862.5603 # total power usage of rename unit
bpred_power            376939786.0532 # total power usage of bpred unit
window_power           5227552985.9463 # total power usage of instruction window
lsq_power              752625039.5496 # total power usage of load/store queue
regfile_power          3040864937.7854 # total power usage of arch. regfile
icache_power           366841028.1743 # total power usage of icache
dcache_power           1557740551.9306 # total power usage of dcache
dcache2_power          375346270.5529 # total power usage of dcache2
alu_power              4018668980.5939 # total power usage of alu
falu_power             3454964280.0390 # total power usage of falu
resultbus_power        3789551894.9677 # total power usage of resultbus
clock_power            7482823724.1650 # total power usage of clock
avg_rename_power             3.2707 # avg power usage of rename unit
avg_bpred_power              3.1162 # avg power usage of bpred unit
avg_window_power            43.2160 # avg power usage of instruction window
avg_lsq_power                6.2219 # avg power usage of lsq
avg_regfile_power           25.1387 # avg power usage of arch. regfile
avg_icache_power             3.0327 # avg power usage of icache
avg_dcache_power            12.8778 # avg power usage of dcache
avg_dcache2_power            3.1030 # avg power usage of dcache2
avg_alu_power               33.2222 # avg power usage of alu
avg_falu_power              28.5621 # avg power usage of falu
avg_resultbus_power         31.3281 # avg power usage of resultbus
avg_clock_power             61.8603 # avg power usage of clock
fetch_stage_power      743780814.2275 # total power usage of fetch stage
dispatch_stage_power   395636862.5603 # total power usage of dispatch stage
issue_stage_power      15721485723.5411 # total power usage of issue stage
avg_fetch_power              6.1488 # average power of fetch unit per cycle
avg_dispatch_power           3.2707 # average power of dispatch unit per cycle
avg_issue_power            129.9691 # average power of issue unit per cycle
total_power            27384592062.2792 # total power per cycle
avg_total_power_cycle      226.3876 # average total power per cycle
avg_total_power_cycle_nofp_nod2     194.7226 # average total power per cycle
avg_total_power_insn       273.8459 # average total power per insn
avg_total_power_insn_nofp_nod2     235.5428 # average total power per insn
rename_power_cc1       76227970.9355 # total power usage of rename unit_cc1
bpred_power_cc1              0.0000 # total power usage of bpred unit_cc1
window_power_cc1       1518940111.5011 # total power usage of instruction window_cc1
lsq_power_cc1          87847725.1810 # total power usage of lsq_cc1
regfile_power_cc1      517764999.9924 # total power usage of arch. regfile_cc1
icache_power_cc1       70679869.1154 # total power usage of icache_cc1
dcache_power_cc1       263218192.6419 # total power usage of dcache_cc1
dcache2_power_cc1      8100472.9093 # total power usage of dcache2_cc1
alu_power_cc1          326785243.6067 # total power usage of alu_cc1
resultbus_power_cc1    1087536450.2759 # total power usage of resultbus_cc1
clock_power_cc1        1514950405.4068 # total power usage of clock_cc1
avg_rename_power_cc1         0.6302 # avg power usage of rename unit_cc1
avg_bpred_power_cc1          0.0000 # avg power usage of bpred unit_cc1
avg_window_power_cc1        12.5570 # avg power usage of instruction window_cc1
avg_lsq_power_cc1            0.7262 # avg power usage of lsq_cc1
avg_regfile_power_cc1        4.2803 # avg power usage of arch. regfile_cc1
avg_icache_power_cc1         0.5843 # avg power usage of icache_cc1
avg_dcache_power_cc1         2.1760 # avg power usage of dcache_cc1
avg_dcache2_power_cc1        0.0670 # avg power usage of dcache2_cc1
avg_alu_power_cc1            2.7015 # avg power usage of alu_cc1
avg_resultbus_power_cc1       8.9906 # avg power usage of resultbus_cc1
avg_clock_power_cc1         12.5241 # avg power usage of clock_cc1
fetch_stage_power_cc1  70679869.1154 # total power usage of fetch stage_cc1
dispatch_stage_power_cc1 76227970.9355 # total power usage of dispatch stage_cc1
issue_stage_power_cc1  3292428196.1160 # total power usage of issue stage_cc1
avg_fetch_power_cc1          0.5843 # average power of fetch unit per cycle_cc1
avg_dispatch_power_cc1       0.6302 # average power of dispatch unit per cycle_cc1
avg_issue_power_cc1         27.2184 # average power of issue unit per cycle_cc1
total_power_cycle_cc1  5472051441.5661 # total power per cycle_cc1
avg_total_power_cycle_cc1      45.2373 # average total power per cycle_cc1
avg_total_power_insn_cc1      54.7205 # average total power per insn_cc1
rename_power_cc2       20441993.4101 # total power usage of rename unit_cc2
bpred_power_cc2              0.0000 # total power usage of bpred unit_cc2
window_power_cc2       389878264.2216 # total power usage of instruction window_cc2
lsq_power_cc2          37616825.1970 # total power usage of lsq_cc2
regfile_power_cc2      57306903.2112 # total power usage of arch. regfile_cc2
icache_power_cc2       70679869.1154 # total power usage of icache_cc2
dcache_power_cc2       124068547.8778 # total power usage of dcache_cc2
dcache2_power_cc2      3180321.5712 # total power usage of dcache2_cc2
alu_power_cc2          132366284.5385 # total power usage of alu_cc2
resultbus_power_cc2    224433821.7808 # total power usage of resultbus_cc2
clock_power_cc2        406889666.3462 # total power usage of clock_cc2
avg_rename_power_cc2         0.1690 # avg power usage of rename unit_cc2
avg_bpred_power_cc2          0.0000 # avg power usage of bpred unit_cc2
avg_window_power_cc2         3.2231 # avg power usage of instruction window_cc2
avg_lsq_power_cc2            0.3110 # avg power usage of instruction lsq_cc2
avg_regfile_power_cc2        0.4738 # avg power usage of arch. regfile_cc2
avg_icache_power_cc2         0.5843 # avg power usage of icache_cc2
avg_dcache_power_cc2         1.0257 # avg power usage of dcache_cc2
avg_dcache2_power_cc2        0.0263 # avg power usage of dcache2_cc2
avg_alu_power_cc2            1.0943 # avg power usage of alu_cc2
avg_resultbus_power_cc2       1.8554 # avg power usage of resultbus_cc2
avg_clock_power_cc2          3.3637 # avg power usage of clock_cc2
fetch_stage_power_cc2  70679869.1154 # total power usage of fetch stage_cc2
dispatch_stage_power_cc2 20441993.4101 # total power usage of dispatch stage_cc2
issue_stage_power_cc2  911544065.1868 # total power usage of issue stage_cc2
avg_fetch_power_cc2          0.5843 # average power of fetch unit per cycle_cc2
avg_dispatch_power_cc2       0.1690 # average power of dispatch unit per cycle_cc2
avg_issue_power_cc2          7.5357 # average power of issue unit per cycle_cc2
total_power_cycle_cc2  1466862497.2697 # total power per cycle_cc2
avg_total_power_cycle_cc2      12.1265 # average total power per cycle_cc2
avg_total_power_insn_cc2      14.6686 # average total power per insn_cc2
rename_power_cc3       52382882.7181 # total power usage of rename unit_cc3
bpred_power_cc3        37693978.8056 # total power usage of bpred unit_cc3
window_power_cc3       743919744.7546 # total power usage of instruction window_cc3
lsq_power_cc3          103380061.7808 # total power usage of lsq_cc3
regfile_power_cc3      302947583.2285 # total power usage of arch. regfile_cc3
icache_power_cc3       100295985.2630 # total power usage of icache_cc3
dcache_power_cc3       253815306.5274 # total power usage of dcache_cc3
dcache2_power_cc3      39915038.2592 # total power usage of dcache2_cc3
alu_power_cc3          501554657.9564 # total power usage of alu_cc3
resultbus_power_cc3    487385123.3598 # total power usage of resultbus_cc3
clock_power_cc3        991731948.1074 # total power usage of clock_cc3
avg_rename_power_cc3         0.4330 # avg power usage of rename unit_cc3
avg_bpred_power_cc3          0.3116 # avg power usage of bpred unit_cc3
avg_window_power_cc3         6.1500 # avg power usage of instruction window_cc3
avg_lsq_power_cc3            0.8546 # avg power usage of instruction lsq_cc3
avg_regfile_power_cc3        2.5045 # avg power usage of arch. regfile_cc3
avg_icache_power_cc3         0.8291 # avg power usage of icache_cc3
avg_dcache_power_cc3         2.0983 # avg power usage of dcache_cc3
avg_dcache2_power_cc3        0.3300 # avg power usage of dcache2_cc3
avg_alu_power_cc3            4.1463 # avg power usage of alu_cc3
avg_resultbus_power_cc3       4.0292 # avg power usage of resultbus_cc3
avg_clock_power_cc3          8.1986 # avg power usage of clock_cc3
fetch_stage_power_cc3  137989964.0686 # total power usage of fetch stage_cc3
dispatch_stage_power_cc3 52382882.7181 # total power usage of dispatch stage_cc3
issue_stage_power_cc3  2129969932.6382 # total power usage of issue stage_cc3
avg_fetch_power_cc3          1.1408 # average power of fetch unit per cycle_cc3
avg_dispatch_power_cc3       0.4330 # average power of dispatch unit per cycle_cc3
avg_issue_power_cc3         17.6084 # average power of issue unit per cycle_cc3
total_power_cycle_cc3  3615022310.7608 # total power per cycle_cc3
avg_total_power_cycle_cc3      29.8853 # average total power per cycle_cc3
avg_total_power_insn_cc3      36.1502 # average total power per insn_cc3
total_rename_access       100000013 # total number accesses of rename unit
total_bpred_access                0 # total number accesses of bpred unit
total_window_access       364277838 # total number accesses of instruction window
total_lsq_access           50492257 # total number accesses of load/store queue
total_regfile_access      122889730 # total number accesses of arch. regfile
total_icache_access       156395723 # total number accesses of icache
total_dcache_access        38537199 # total number accesses of dcache
total_dcache2_access        4099704 # total number accesses of dcache2
total_alu_access           99999989 # total number accesses of alu
total_resultbus_access    122265163 # total number accesses of resultbus
avg_rename_access            0.8267 # avg number accesses of rename unit
avg_bpred_access             0.0000 # avg number accesses of bpred unit
avg_window_access            3.0115 # avg number accesses of instruction window
avg_lsq_access               0.4174 # avg number accesses of lsq
avg_regfile_access           1.0159 # avg number accesses of arch. regfile
avg_icache_access            1.2929 # avg number accesses of icache
avg_dcache_access            0.3186 # avg number accesses of dcache
avg_dcache2_access           0.0339 # avg number accesses of dcache2
avg_alu_access               0.8267 # avg number accesses of alu
avg_resultbus_access         1.0108 # avg number accesses of resultbus
max_rename_access                16 # max number accesses of rename unit
max_bpred_access                  0 # max number accesses of bpred unit
max_window_access                40 # max number accesses of instruction window
max_lsq_access                   11 # max number accesses of load/store queue
max_regfile_access               41 # max number accesses of arch. regfile
max_icache_access                16 # max number accesses of icache
max_dcache_access                 8 # max number accesses of dcache
max_dcache2_access               10 # max number accesses of dcache2
max_alu_access                    9 # max number accesses of alu
max_resultbus_access             14 # max number accesses of resultbus
max_cycle_power_cc1        168.2424 # maximum cycle power usage of cc1
max_cycle_power_cc2         94.6326 # maximum cycle power usage of cc2
max_cycle_power_cc3        103.0099 # maximum cycle power usage of cc3
sim_invalid_addrs                 0 # total non-speculative bogus addresses seen (debug var)
ld_text_base           0x0120000000 # program text (code) segment base
ld_text_size                 376832 # program text (code) size in bytes
ld_data_base           0x0140000000 # program initialized data segment base
ld_data_size                  70048 # program init'ed `.data' and uninit'ed `.bss' size in bytes
ld_stack_base          0x011ff9b000 # program stack segment base (highest address in stack)
ld_stack_size                 16384 # program initial stack size
ld_prog_entry          0x0120025390 # program entry point (initial PC)
ld_environ_base        0x011ff96460 # program environment base address address
ld_target_big_endian              0 # target executable endian-ness, non-zero if big endian
mem.page_count                 5705 # total number of pages allocated
mem.page_mem                 45640k # total size of memory pages allocated
mem.ptab_misses                5718 # total first level page table misses
mem.ptab_accesses         975106978 # total page table accesses
mem.ptab_miss_rate           0.0000 # first level page table miss rate

