sim-outorder: SimpleScalar/Alpha Tool Set version 3.0 of August, 2003.
Copyright (c) 1994-2003 by Todd M. Austin, Ph.D. and SimpleScalar, LLC.
All Rights Reserved. This version of SimpleScalar is licensed for academic
non-commercial use.  No portion of this work may be used by any commercial
entity, or for any commercial purpose, without the prior written permission
of SimpleScalar, LLC (info@simplescalar.com).


Processor Parameters:
Issue Width: 16
Window Size: 64
Number of Virtual Registers: 32
Number of Physical Registers: 64
Datapath Width: 64
Total Power Consumption: 228.388
Branch Predictor Power Consumption: 3.11615  (1.38%)
 branch target buffer power (W): 2.49493
 local predict power (W): 0.354432
 global predict power (W): 0.0996078
 chooser power (W): 0.0702439
 RAS power (W): 0.0969383
Rename Logic Power Consumption: 3.27072  (1.44%)
 Instruction Decode Power (W): 0.0639661
 RAT decode_power (W): 0.454058
 RAT wordline_power (W): 0.227603
 RAT bitline_power (W): 2.30694
 DCL Comparators (W): 0.218151
Instruction Window Power Consumption: 43.216  (19.1%)
 tagdrive (W): 2.9395
 tagmatch (W): 0.989695
 Selection Logic (W): 0.225484
 decode_power (W): 0.976583
 wordline_power (W): 1.0557
 bitline_power (W): 37.0291
Load/Store Queue Power Consumption: 6.22193  (2.75%)
 tagdrive (W): 2.49901
 tagmatch (W): 0.859464
 decode_power (W): 0.0756763
 wordline_power (W): 0.0433172
 bitline_power (W): 2.74446
Arch. Register File Power Consumption: 25.1387  (11.1%)
 decode_power (W): 0.454058
 wordline_power (W): 1.0557
 bitline_power (W): 23.629
Result Bus Power Consumption: 31.3281  (13.8%)
Total Clock Power: 61.8603  (27.3%)
Int ALU Power: 4.66013  (2.06%)
FP ALU Power: 28.5621  (12.6%)
Instruction Cache Power Consumption: 2.76773  (1.22%)
 decode_power (W): 0.151353
 wordline_power (W): 0.180479
 bitline_power (W): 1.42251
 senseamp_power (W): 0.768
 tagarray_power (W): 0.245382
Itlb_power (W): 0.264936 (0.117%)
Data Cache Power Consumption: 11.0709  (4.89%)
 decode_power (W): 0.60541
 wordline_power (W): 0.721917
 bitline_power (W): 5.69006
 senseamp_power (W): 3.072
 tagarray_power (W): 0.981529
Dtlb_power (W): 1.80688 (0.798%)
Level 2 Cache Power Consumption: 3.10298 (1.37%)
 decode_power (W): 0.19487
 wordline_power (W): 0.0430878
 bitline_power (W): 1.77274
 senseamp_power (W): 0.192
 tagarray_power (W): 0.900275
sim: loading EIO file: ../benchmarks/252.eon.cook-ref.eio.gz
sim: command line: ./sim-outorder -config ../configs/current.config ../benchmarks/252.eon.cook-ref.eio.gz 

sim: simulation started @ Tue Nov 24 13:57:49 2015, options follow:

sim-outorder: This simulator implements a very detailed out-of-order issue
superscalar processor with a two-level memory system and speculative
execution support.  This simulator is a performance simulator, tracking the
latency of all pipeline operations.

# -config                     # load configuration from a file
# -dumpconfig                 # dump configuration to a file
# -h                    false # print help message    
# -v                    false # verbose operation     
# -d                    false # enable debug message  
# -i                    false # start in Dlite debugger
-seed                       1 # random number generator seed (0 for timer seed)
# -q                    false # initialize and terminate immediately
# -chkpt               <null> # restore EIO trace execution from <fname>
# -redir:sim     ../results/30_23_lsq/252.eon.cook-ref.eio.gz.out # redirect simulator output to file (non-interactive only)
# -redir:prog       /dev/null # redirect simulated program output to file
-nice                       0 # simulator scheduling priority
-freq            600000000.0000 # frequency             
-max:inst           100000000 # maximum number of inst's to execute
-fastfwd                    0 # number of insts skipped before timing starts
# -ptrace              <null> # generate pipetrace, i.e., <fname|stdout|stderr> <range>
-fetch:ifqsize             16 # instruction fetch queue size (in insts)
-fetch:mplat               15 # extra branch mis-prediction latency
-fetch:speed                1 # speed of front-end of machine relative to execution core
-bpred                perfect # branch predictor type {nottaken|taken|perfect|bimod|2lev|comb}
-bpred:bimod     2048 # bimodal predictor config (<table size>)
-bpred:2lev      1 8192 8 0 # 2-level predictor config (<l1size> <l2size> <hist_size> <xor>)
-bpred:comb      1024 # combining predictor config (<meta_table_size>)
-bpred:ras                  8 # return address stack size (0 for no return stack)
-bpred:btb       512 4 # BTB config (<num_sets> <associativity>)
# -bpred:spec_update       <null> # speculative predictors update in {ID|WB} (default non-spec)
-decode:width              16 # instruction decode B/W (insts/cycle)
-issue:width               16 # instruction issue B/W (insts/cycle)
-issue:inorder          false # run pipeline with in-order issue
-issue:wrongpath         true # issue instructions down wrong execution paths
-commit:width              16 # instruction commit B/W (insts/cycle)
-ruu:size                  64 # register update unit (RUU) size
-lsq:size                  32 # load/store queue (LSQ) size
-cache:dl1       dl1:32:64:8:f # l1 data cache config, i.e., {<config>|none}
-cache:dl1lat               1 # l1 data cache hit latency (in cycles)
-cache:dl2       dl2:256:64:8:f # l2 data cache config, i.e., {<config>|none}
-cache:dl2lat               2 # l2 data cache hit latency (in cycles)
-cache:il1       il1:32:64:8:f # l1 inst cache config, i.e., {<config>|dl1|dl2|none}
-cache:il1lat               1 # l1 instruction cache hit latency (in cycles)
-cache:il2                dl2 # l2 instruction cache config, i.e., {<config>|dl2|none}
-cache:il2lat               2 # l2 instruction cache hit latency (in cycles)
-cache:flush            false # flush caches on system calls
-cache:icompress        false # convert 64-bit inst addresses to 32-bit inst equivalents
-mem:lat         103 1 # memory access latency (<first_chunk> <inter_chunk>)
-mem:width                  8 # memory access bus width (in bytes)
-tlb:itlb        itlb:16:4096:4:l # instruction TLB config, i.e., {<config>|none}
-tlb:dtlb        dtlb:32:4096:4:l # data TLB config, i.e., {<config>|none}
-tlb:lat                   30 # inst/data TLB miss latency (in cycles)
-res:ialu                   4 # total number of integer ALU's available
-res:imult                  2 # total number of integer multiplier/dividers available
-res:memport                4 # total number of memory system ports available (to CPU)
-res:fpalu                  8 # total number of floating point ALU's available
-res:fpmult                 2 # total number of floating point multiplier/dividers available
# -pcstat              <null> # profile stat(s) against text addr's (mult uses ok)
-bugcompat              false # operate in backward-compatible bugs mode (for testing only)

  Pipetrace range arguments are formatted as follows:

    {{@|#}<start>}:{{@|#|+}<end>}

  Both ends of the range are optional, if neither are specified, the entire
  execution is traced.  Ranges that start with a `@' designate an address
  range to be traced, those that start with an `#' designate a cycle count
  range.  All other range values represent an instruction count range.  The
  second argument, if specified with a `+', indicates a value relative
  to the first argument, e.g., 1000:+100 == 1000:1100.  Program symbols may
  be used in all contexts.

    Examples:   -ptrace FOO.trc #0:#1000
                -ptrace BAR.trc @2000:
                -ptrace BLAH.trc :1500
                -ptrace UXXE.trc :
                -ptrace FOOBAR.trc @main:+278

  Branch predictor configuration examples for 2-level predictor:
    Configurations:   N, M, W, X
      N   # entries in first level (# of shift register(s))
      W   width of shift register(s)
      M   # entries in 2nd level (# of counters, or other FSM)
      X   (yes-1/no-0) xor history and address for 2nd level index
    Sample predictors:
      GAg     : 1, W, 2^W, 0
      GAp     : 1, W, M (M > 2^W), 0
      PAg     : N, W, 2^W, 0
      PAp     : N, W, M (M == 2^(N+W)), 0
      gshare  : 1, W, 2^W, 1
  Predictor `comb' combines a bimodal and a 2-level predictor.

  The cache config parameter <config> has the following format:

    <name>:<nsets>:<bsize>:<assoc>:<repl>

    <name>   - name of the cache being defined
    <nsets>  - number of sets in the cache
    <bsize>  - block size of the cache
    <assoc>  - associativity of the cache
    <repl>   - block replacement strategy, 'l'-LRU, 'f'-FIFO, 'r'-random

    Examples:   -cache:dl1 dl1:4096:32:1:l
                -dtlb dtlb:128:4096:32:r

  Cache levels can be unified by pointing a level of the instruction cache
  hierarchy at the data cache hiearchy using the "dl1" and "dl2" cache
  configuration arguments.  Most sensible combinations are supported, e.g.,

    A unified l2 cache (il2 is pointed at dl2):
      -cache:il1 il1:128:64:1:l -cache:il2 dl2
      -cache:dl1 dl1:256:32:1:l -cache:dl2 ul2:1024:64:2:l

    Or, a fully unified cache hierarchy (il1 pointed at dl1):
      -cache:il1 dl1
      -cache:dl1 ul1:256:32:1:l -cache:dl2 ul2:1024:64:2:l



sim: ** starting performance simulation **

sim: ** simulation statistics **
sim_num_insn              100000000 # total number of instructions committed
sim_num_refs               45959960 # total number of loads and stores committed
sim_num_loads              29429717 # total number of loads committed
sim_num_stores         16530243.0000 # total number of stores committed
sim_num_branches           11225005 # total number of branches committed
sim_elapsed_time                123 # total simulation time in seconds
sim_inst_rate           813008.1301 # simulation speed (in insts/sec)
sim_total_insn            100000000 # total number of instructions executed
sim_total_refs             45959960 # total number of loads and stores executed
sim_total_loads            29429717 # total number of loads executed
sim_total_stores       16530243.0000 # total number of stores executed
sim_total_branches         11225005 # total number of branches executed
sim_cycle                  27929390 # total simulation time in cycles
sim_IPC                      3.5805 # instructions per cycle
sim_CPI                      0.2793 # cycles per instruction
sim_exec_BW                  3.5805 # total instructions (mis-spec + committed) per cycle
sim_IPB                      8.9087 # instruction per branch
IFQ_count                 413826645 # cumulative IFQ occupancy
IFQ_fcount                 25184656 # cumulative IFQ full count
ifq_occupancy               14.8169 # avg IFQ occupancy (insn's)
ifq_rate                     3.5805 # avg IFQ dispatch rate (insn/cycle)
ifq_latency                  4.1383 # avg IFQ occupant latency (cycle's)
ifq_full                     0.9017 # fraction of time (cycle's) IFQ was full
RUU_count                1568299626 # cumulative RUU occupancy
RUU_fcount                 12024482 # cumulative RUU full count
ruu_occupancy               56.1523 # avg RUU occupancy (insn's)
ruu_rate                     3.5805 # avg RUU dispatch rate (insn/cycle)
ruu_latency                 15.6830 # avg RUU occupant latency (cycle's)
ruu_full                     0.4305 # fraction of time (cycle's) RUU was full
LSQ_count                 685827200 # cumulative LSQ occupancy
LSQ_fcount                  6579365 # cumulative LSQ full count
lsq_occupancy               24.5558 # avg LSQ occupancy (insn's)
lsq_rate                     3.5805 # avg LSQ dispatch rate (insn/cycle)
lsq_latency                  6.8583 # avg LSQ occupant latency (cycle's)
lsq_full                     0.2356 # fraction of time (cycle's) LSQ was full
sim_slip                 2400085311 # total number of slip cycles
avg_sim_slip                24.0009 # the average slip between issue and retirement
il1.accesses              174043625 # total number of accesses
il1.hits                  172877920 # total number of hits
il1.misses                  1165705 # total number of misses
il1.replacements            1165449 # total number of replacements
il1.writebacks                    0 # total number of writebacks
il1.invalidations                 0 # total number of invalidations
il1.miss_rate                0.0067 # miss rate (i.e., misses/ref)
il1.repl_rate                0.0067 # replacement rate (i.e., repls/ref)
il1.wb_rate                  0.0000 # writeback rate (i.e., wrbks/ref)
il1.inv_rate                 0.0000 # invalidation rate (i.e., invs/ref)
dl1.accesses               42828399 # total number of accesses
dl1.hits                   42568874 # total number of hits
dl1.misses                   259525 # total number of misses
dl1.replacements             259269 # total number of replacements
dl1.writebacks                61933 # total number of writebacks
dl1.invalidations                 0 # total number of invalidations
dl1.miss_rate                0.0061 # miss rate (i.e., misses/ref)
dl1.repl_rate                0.0061 # replacement rate (i.e., repls/ref)
dl1.wb_rate                  0.0014 # writeback rate (i.e., wrbks/ref)
dl1.inv_rate                 0.0000 # invalidation rate (i.e., invs/ref)
dl2.accesses                1487163 # total number of accesses
dl2.hits                    1478331 # total number of hits
dl2.misses                     8832 # total number of misses
dl2.replacements               6784 # total number of replacements
dl2.writebacks                 2854 # total number of writebacks
dl2.invalidations                 0 # total number of invalidations
dl2.miss_rate                0.0059 # miss rate (i.e., misses/ref)
dl2.repl_rate                0.0046 # replacement rate (i.e., repls/ref)
dl2.wb_rate                  0.0019 # writeback rate (i.e., wrbks/ref)
dl2.inv_rate                 0.0000 # invalidation rate (i.e., invs/ref)
itlb.accesses             174043625 # total number of accesses
itlb.hits                 174043363 # total number of hits
itlb.misses                     262 # total number of misses
itlb.replacements               198 # total number of replacements
itlb.writebacks                   0 # total number of writebacks
itlb.invalidations                0 # total number of invalidations
itlb.miss_rate               0.0000 # miss rate (i.e., misses/ref)
itlb.repl_rate               0.0000 # replacement rate (i.e., repls/ref)
itlb.wb_rate                 0.0000 # writeback rate (i.e., wrbks/ref)
itlb.inv_rate                0.0000 # invalidation rate (i.e., invs/ref)
dtlb.accesses              45959960 # total number of accesses
dtlb.hits                  45959843 # total number of hits
dtlb.misses                     117 # total number of misses
dtlb.replacements                 6 # total number of replacements
dtlb.writebacks                   0 # total number of writebacks
dtlb.invalidations                0 # total number of invalidations
dtlb.miss_rate               0.0000 # miss rate (i.e., misses/ref)
dtlb.repl_rate               0.0000 # replacement rate (i.e., repls/ref)
dtlb.wb_rate                 0.0000 # writeback rate (i.e., wrbks/ref)
dtlb.inv_rate                0.0000 # invalidation rate (i.e., invs/ref)
rename_power           91349173.1273 # total power usage of rename unit
bpred_power            87032177.9595 # total power usage of bpred unit
window_power           1206997345.5863 # total power usage of instruction window
lsq_power              173774694.7033 # total power usage of load/store queue
regfile_power          702109748.5630 # total power usage of arch. regfile
icache_power           84700460.9917 # total power usage of icache
dcache_power           359668989.9960 # total power usage of dcache
dcache2_power          86664248.3861 # total power usage of dcache2
alu_power              927876348.3739 # total power usage of alu
falu_power             797721748.3129 # total power usage of falu
resultbus_power        874975173.7087 # total power usage of resultbus
clock_power            1727720094.6439 # total power usage of clock
avg_rename_power             3.2707 # avg power usage of rename unit
avg_bpred_power              3.1162 # avg power usage of bpred unit
avg_window_power            43.2160 # avg power usage of instruction window
avg_lsq_power                6.2219 # avg power usage of lsq
avg_regfile_power           25.1387 # avg power usage of arch. regfile
avg_icache_power             3.0327 # avg power usage of icache
avg_dcache_power            12.8778 # avg power usage of dcache
avg_dcache2_power            3.1030 # avg power usage of dcache2
avg_alu_power               33.2222 # avg power usage of alu
avg_falu_power              28.5621 # avg power usage of falu
avg_resultbus_power         31.3281 # avg power usage of resultbus
avg_clock_power             61.8603 # avg power usage of clock
fetch_stage_power      171732638.9513 # total power usage of fetch stage
dispatch_stage_power   91349173.1273 # total power usage of dispatch stage
issue_stage_power      3629956800.7542 # total power usage of issue stage
avg_fetch_power              6.1488 # average power of fetch unit per cycle
avg_dispatch_power           3.2707 # average power of dispatch unit per cycle
avg_issue_power            129.9691 # average power of issue unit per cycle
total_power            6322868456.0397 # total power per cycle
avg_total_power_cycle      226.3876 # average total power per cycle
avg_total_power_cycle_nofp_nod2     194.7226 # average total power per cycle
avg_total_power_insn        63.2287 # average total power per insn
avg_total_power_insn_nofp_nod2      54.3848 # average total power per insn
rename_power_cc1       58930174.2385 # total power usage of rename unit_cc1
bpred_power_cc1              0.0000 # total power usage of bpred unit_cc1
window_power_cc1       1012674281.3146 # total power usage of instruction window_cc1
lsq_power_cc1          75670605.3401 # total power usage of lsq_cc1
regfile_power_cc1      424569597.9386 # total power usage of arch. regfile_cc1
icache_power_cc1       55326394.0316 # total power usage of icache_cc1
dcache_power_cc1       236115769.6735 # total power usage of dcache_cc1
dcache2_power_cc1      4285808.2453 # total power usage of dcache2_cc1
alu_power_cc1          362910199.7744 # total power usage of alu_cc1
resultbus_power_cc1    767392043.0910 # total power usage of resultbus_cc1
clock_power_cc1        1074287352.2791 # total power usage of clock_cc1
avg_rename_power_cc1         2.1100 # avg power usage of rename unit_cc1
avg_bpred_power_cc1          0.0000 # avg power usage of bpred unit_cc1
avg_window_power_cc1        36.2584 # avg power usage of instruction window_cc1
avg_lsq_power_cc1            2.7094 # avg power usage of lsq_cc1
avg_regfile_power_cc1       15.2015 # avg power usage of arch. regfile_cc1
avg_icache_power_cc1         1.9809 # avg power usage of icache_cc1
avg_dcache_power_cc1         8.4540 # avg power usage of dcache_cc1
avg_dcache2_power_cc1        0.1535 # avg power usage of dcache2_cc1
avg_alu_power_cc1           12.9938 # avg power usage of alu_cc1
avg_resultbus_power_cc1      27.4761 # avg power usage of resultbus_cc1
avg_clock_power_cc1         38.4644 # avg power usage of clock_cc1
fetch_stage_power_cc1  55326394.0316 # total power usage of fetch stage_cc1
dispatch_stage_power_cc1 58930174.2385 # total power usage of dispatch stage_cc1
issue_stage_power_cc1  2459048707.4389 # total power usage of issue stage_cc1
avg_fetch_power_cc1          1.9809 # average power of fetch unit per cycle_cc1
avg_dispatch_power_cc1       2.1100 # average power of dispatch unit per cycle_cc1
avg_issue_power_cc1         88.0452 # average power of issue unit per cycle_cc1
total_power_cycle_cc1  4072162225.9267 # total power per cycle_cc1
avg_total_power_cycle_cc1     145.8020 # average total power per cycle_cc1
avg_total_power_insn_cc1      40.7216 # average total power per insn_cc1
rename_power_cc2       20441990.7545 # total power usage of rename unit_cc2
bpred_power_cc2              0.0000 # total power usage of bpred unit_cc2
window_power_cc2       379586959.5873 # total power usage of instruction window_cc2
lsq_power_cc2          35834093.7276 # total power usage of lsq_cc2
regfile_power_cc2      56392094.9588 # total power usage of arch. regfile_cc2
icache_power_cc2       55326394.0316 # total power usage of icache_cc2
dcache_power_cc2       137883847.5525 # total power usage of dcache_cc2
dcache2_power_cc2      1153658.0613 # total power usage of dcache2_cc2
alu_power_cc2          150684704.1222 # total power usage of alu_cc2
resultbus_power_cc2    216980292.0528 # total power usage of resultbus_cc2
clock_power_cc2        371440047.8501 # total power usage of clock_cc2
avg_rename_power_cc2         0.7319 # avg power usage of rename unit_cc2
avg_bpred_power_cc2          0.0000 # avg power usage of bpred unit_cc2
avg_window_power_cc2        13.5910 # avg power usage of instruction window_cc2
avg_lsq_power_cc2            1.2830 # avg power usage of instruction lsq_cc2
avg_regfile_power_cc2        2.0191 # avg power usage of arch. regfile_cc2
avg_icache_power_cc2         1.9809 # avg power usage of icache_cc2
avg_dcache_power_cc2         4.9369 # avg power usage of dcache_cc2
avg_dcache2_power_cc2        0.0413 # avg power usage of dcache2_cc2
avg_alu_power_cc2            5.3952 # avg power usage of alu_cc2
avg_resultbus_power_cc2       7.7689 # avg power usage of resultbus_cc2
avg_clock_power_cc2         13.2993 # avg power usage of clock_cc2
fetch_stage_power_cc2  55326394.0316 # total power usage of fetch stage_cc2
dispatch_stage_power_cc2 20441990.7545 # total power usage of dispatch stage_cc2
issue_stage_power_cc2  922123555.1037 # total power usage of issue stage_cc2
avg_fetch_power_cc2          1.9809 # average power of fetch unit per cycle_cc2
avg_dispatch_power_cc2       0.7319 # average power of dispatch unit per cycle_cc2
avg_issue_power_cc2         33.0162 # average power of issue unit per cycle_cc2
total_power_cycle_cc2  1425724082.6987 # total power per cycle_cc2
avg_total_power_cycle_cc2      51.0474 # average total power per cycle_cc2
avg_total_power_insn_cc2      14.2572 # average total power per insn_cc2
rename_power_cc3       23683890.6528 # total power usage of rename unit_cc3
bpred_power_cc3        8703217.7898 # total power usage of bpred unit_cc3
window_power_cc3       384351285.3863 # total power usage of instruction window_cc3
lsq_power_cc3          45034456.3023 # total power usage of lsq_cc3
regfile_power_cc3      78321650.8931 # total power usage of arch. regfile_cc3
icache_power_cc3       58263800.7383 # total power usage of icache_cc3
dcache_power_cc3       151052447.5003 # total power usage of dcache_cc3
dcache2_power_cc3      9391541.9550 # total power usage of dcache2_cc3
alu_power_cc3          207181318.9123 # total power usage of alu_cc3
resultbus_power_cc3    222622658.0664 # total power usage of resultbus_cc3
clock_power_cc3        427747297.6916 # total power usage of clock_cc3
avg_rename_power_cc3         0.8480 # avg power usage of rename unit_cc3
avg_bpred_power_cc3          0.3116 # avg power usage of bpred unit_cc3
avg_window_power_cc3        13.7615 # avg power usage of instruction window_cc3
avg_lsq_power_cc3            1.6124 # avg power usage of instruction lsq_cc3
avg_regfile_power_cc3        2.8043 # avg power usage of arch. regfile_cc3
avg_icache_power_cc3         2.0861 # avg power usage of icache_cc3
avg_dcache_power_cc3         5.4084 # avg power usage of dcache_cc3
avg_dcache2_power_cc3        0.3363 # avg power usage of dcache2_cc3
avg_alu_power_cc3            7.4180 # avg power usage of alu_cc3
avg_resultbus_power_cc3       7.9709 # avg power usage of resultbus_cc3
avg_clock_power_cc3         15.3153 # avg power usage of clock_cc3
fetch_stage_power_cc3  66967018.5281 # total power usage of fetch stage_cc3
dispatch_stage_power_cc3 23683890.6528 # total power usage of dispatch stage_cc3
issue_stage_power_cc3  1019633708.1226 # total power usage of issue stage_cc3
avg_fetch_power_cc3          2.3977 # average power of fetch unit per cycle_cc3
avg_dispatch_power_cc3       0.8480 # average power of dispatch unit per cycle_cc3
avg_issue_power_cc3         36.5076 # average power of issue unit per cycle_cc3
total_power_cycle_cc3  1616353565.8883 # total power per cycle_cc3
avg_total_power_cycle_cc3      57.8729 # average total power per cycle_cc3
avg_total_power_insn_cc3      16.1635 # average total power per insn_cc3
total_rename_access       100000000 # total number accesses of rename unit
total_bpred_access                0 # total number accesses of bpred unit
total_window_access       368288780 # total number accesses of instruction window
total_lsq_access           49091521 # total number accesses of load/store queue
total_regfile_access      123244976 # total number accesses of arch. regfile
total_icache_access       174043625 # total number accesses of icache
total_dcache_access        42828399 # total number accesses of dcache
total_dcache2_access        1487163 # total number accesses of dcache2
total_alu_access           99880630 # total number accesses of alu
total_resultbus_access    118204692 # total number accesses of resultbus
avg_rename_access            3.5805 # avg number accesses of rename unit
avg_bpred_access             0.0000 # avg number accesses of bpred unit
avg_window_access           13.1864 # avg number accesses of instruction window
avg_lsq_access               1.7577 # avg number accesses of lsq
avg_regfile_access           4.4127 # avg number accesses of arch. regfile
avg_icache_access            6.2316 # avg number accesses of icache
avg_dcache_access            1.5335 # avg number accesses of dcache
avg_dcache2_access           0.0532 # avg number accesses of dcache2
avg_alu_access               3.5762 # avg number accesses of alu
avg_resultbus_access         4.2323 # avg number accesses of resultbus
max_rename_access                16 # max number accesses of rename unit
max_bpred_access                  0 # max number accesses of bpred unit
max_window_access                44 # max number accesses of instruction window
max_lsq_access                   16 # max number accesses of load/store queue
max_regfile_access               35 # max number accesses of arch. regfile
max_icache_access                16 # max number accesses of icache
max_dcache_access                 8 # max number accesses of dcache
max_dcache2_access                9 # max number accesses of dcache2
max_alu_access                   12 # max number accesses of alu
max_resultbus_access             16 # max number accesses of resultbus
max_cycle_power_cc1        203.1600 # maximum cycle power usage of cc1
max_cycle_power_cc2        126.2253 # maximum cycle power usage of cc2
max_cycle_power_cc3        128.5590 # maximum cycle power usage of cc3
sim_invalid_addrs                 0 # total non-speculative bogus addresses seen (debug var)
ld_text_base           0x0120000000 # program text (code) segment base
ld_text_size                 794624 # program text (code) size in bytes
ld_data_base           0x0140000000 # program initialized data segment base
ld_data_size                 216592 # program init'ed `.data' and uninit'ed `.bss' size in bytes
ld_stack_base          0x011ff9b000 # program stack segment base (highest address in stack)
ld_stack_size                 16384 # program initial stack size
ld_prog_entry          0x012002d410 # program entry point (initial PC)
ld_environ_base        0x011ff97000 # program environment base address address
ld_target_big_endian              0 # target executable endian-ness, non-zero if big endian
mem.page_count                  148 # total number of pages allocated
mem.page_mem                  1184k # total size of memory pages allocated
mem.ptab_misses              510110 # total first level page table misses
mem.ptab_accesses         987467090 # total page table accesses
mem.ptab_miss_rate           0.0005 # first level page table miss rate

