sim-outorder: SimpleScalar/Alpha Tool Set version 3.0 of August, 2003.
Copyright (c) 1994-2003 by Todd M. Austin, Ph.D. and SimpleScalar, LLC.
All Rights Reserved. This version of SimpleScalar is licensed for academic
non-commercial use.  No portion of this work may be used by any commercial
entity, or for any commercial purpose, without the prior written permission
of SimpleScalar, LLC (info@simplescalar.com).


Processor Parameters:
Issue Width: 16
Window Size: 64
Number of Virtual Registers: 32
Number of Physical Registers: 64
Datapath Width: 64
Total Power Consumption: 228.388
Branch Predictor Power Consumption: 3.11615  (1.38%)
 branch target buffer power (W): 2.49493
 local predict power (W): 0.354432
 global predict power (W): 0.0996078
 chooser power (W): 0.0702439
 RAS power (W): 0.0969383
Rename Logic Power Consumption: 3.27072  (1.44%)
 Instruction Decode Power (W): 0.0639661
 RAT decode_power (W): 0.454058
 RAT wordline_power (W): 0.227603
 RAT bitline_power (W): 2.30694
 DCL Comparators (W): 0.218151
Instruction Window Power Consumption: 43.216  (19.1%)
 tagdrive (W): 2.9395
 tagmatch (W): 0.989695
 Selection Logic (W): 0.225484
 decode_power (W): 0.976583
 wordline_power (W): 1.0557
 bitline_power (W): 37.0291
Load/Store Queue Power Consumption: 6.22193  (2.75%)
 tagdrive (W): 2.49901
 tagmatch (W): 0.859464
 decode_power (W): 0.0756763
 wordline_power (W): 0.0433172
 bitline_power (W): 2.74446
Arch. Register File Power Consumption: 25.1387  (11.1%)
 decode_power (W): 0.454058
 wordline_power (W): 1.0557
 bitline_power (W): 23.629
Result Bus Power Consumption: 31.3281  (13.8%)
Total Clock Power: 61.8603  (27.3%)
Int ALU Power: 4.66013  (2.06%)
FP ALU Power: 28.5621  (12.6%)
Instruction Cache Power Consumption: 2.76773  (1.22%)
 decode_power (W): 0.151353
 wordline_power (W): 0.180479
 bitline_power (W): 1.42251
 senseamp_power (W): 0.768
 tagarray_power (W): 0.245382
Itlb_power (W): 0.264936 (0.117%)
Data Cache Power Consumption: 11.0709  (4.89%)
 decode_power (W): 0.60541
 wordline_power (W): 0.721917
 bitline_power (W): 5.69006
 senseamp_power (W): 3.072
 tagarray_power (W): 0.981529
Dtlb_power (W): 1.80688 (0.798%)
Level 2 Cache Power Consumption: 3.10298 (1.37%)
 decode_power (W): 0.19487
 wordline_power (W): 0.0430878
 bitline_power (W): 1.77274
 senseamp_power (W): 0.192
 tagarray_power (W): 0.900275
sim: loading EIO file: ../benchmarks/253.perlbmk.makerand-ref.eio.gz
sim: command line: ./sim-outorder -config ../configs/current.config ../benchmarks/253.perlbmk.makerand-ref.eio.gz 

sim: simulation started @ Tue Nov 24 13:57:49 2015, options follow:

sim-outorder: This simulator implements a very detailed out-of-order issue
superscalar processor with a two-level memory system and speculative
execution support.  This simulator is a performance simulator, tracking the
latency of all pipeline operations.

# -config                     # load configuration from a file
# -dumpconfig                 # dump configuration to a file
# -h                    false # print help message    
# -v                    false # verbose operation     
# -d                    false # enable debug message  
# -i                    false # start in Dlite debugger
-seed                       1 # random number generator seed (0 for timer seed)
# -q                    false # initialize and terminate immediately
# -chkpt               <null> # restore EIO trace execution from <fname>
# -redir:sim     ../results/30_23_lsq/253.perlbmk.makerand-ref.eio.gz.out # redirect simulator output to file (non-interactive only)
# -redir:prog       /dev/null # redirect simulated program output to file
-nice                       0 # simulator scheduling priority
-freq            600000000.0000 # frequency             
-max:inst           100000000 # maximum number of inst's to execute
-fastfwd                    0 # number of insts skipped before timing starts
# -ptrace              <null> # generate pipetrace, i.e., <fname|stdout|stderr> <range>
-fetch:ifqsize             16 # instruction fetch queue size (in insts)
-fetch:mplat               15 # extra branch mis-prediction latency
-fetch:speed                1 # speed of front-end of machine relative to execution core
-bpred                perfect # branch predictor type {nottaken|taken|perfect|bimod|2lev|comb}
-bpred:bimod     2048 # bimodal predictor config (<table size>)
-bpred:2lev      1 8192 8 0 # 2-level predictor config (<l1size> <l2size> <hist_size> <xor>)
-bpred:comb      1024 # combining predictor config (<meta_table_size>)
-bpred:ras                  8 # return address stack size (0 for no return stack)
-bpred:btb       512 4 # BTB config (<num_sets> <associativity>)
# -bpred:spec_update       <null> # speculative predictors update in {ID|WB} (default non-spec)
-decode:width              16 # instruction decode B/W (insts/cycle)
-issue:width               16 # instruction issue B/W (insts/cycle)
-issue:inorder          false # run pipeline with in-order issue
-issue:wrongpath         true # issue instructions down wrong execution paths
-commit:width              16 # instruction commit B/W (insts/cycle)
-ruu:size                  64 # register update unit (RUU) size
-lsq:size                  32 # load/store queue (LSQ) size
-cache:dl1       dl1:32:64:8:f # l1 data cache config, i.e., {<config>|none}
-cache:dl1lat               1 # l1 data cache hit latency (in cycles)
-cache:dl2       dl2:256:64:8:f # l2 data cache config, i.e., {<config>|none}
-cache:dl2lat               2 # l2 data cache hit latency (in cycles)
-cache:il1       il1:32:64:8:f # l1 inst cache config, i.e., {<config>|dl1|dl2|none}
-cache:il1lat               1 # l1 instruction cache hit latency (in cycles)
-cache:il2                dl2 # l2 instruction cache config, i.e., {<config>|dl2|none}
-cache:il2lat               2 # l2 instruction cache hit latency (in cycles)
-cache:flush            false # flush caches on system calls
-cache:icompress        false # convert 64-bit inst addresses to 32-bit inst equivalents
-mem:lat         103 1 # memory access latency (<first_chunk> <inter_chunk>)
-mem:width                  8 # memory access bus width (in bytes)
-tlb:itlb        itlb:16:4096:4:l # instruction TLB config, i.e., {<config>|none}
-tlb:dtlb        dtlb:32:4096:4:l # data TLB config, i.e., {<config>|none}
-tlb:lat                   30 # inst/data TLB miss latency (in cycles)
-res:ialu                   4 # total number of integer ALU's available
-res:imult                  2 # total number of integer multiplier/dividers available
-res:memport                4 # total number of memory system ports available (to CPU)
-res:fpalu                  8 # total number of floating point ALU's available
-res:fpmult                 2 # total number of floating point multiplier/dividers available
# -pcstat              <null> # profile stat(s) against text addr's (mult uses ok)
-bugcompat              false # operate in backward-compatible bugs mode (for testing only)

  Pipetrace range arguments are formatted as follows:

    {{@|#}<start>}:{{@|#|+}<end>}

  Both ends of the range are optional, if neither are specified, the entire
  execution is traced.  Ranges that start with a `@' designate an address
  range to be traced, those that start with an `#' designate a cycle count
  range.  All other range values represent an instruction count range.  The
  second argument, if specified with a `+', indicates a value relative
  to the first argument, e.g., 1000:+100 == 1000:1100.  Program symbols may
  be used in all contexts.

    Examples:   -ptrace FOO.trc #0:#1000
                -ptrace BAR.trc @2000:
                -ptrace BLAH.trc :1500
                -ptrace UXXE.trc :
                -ptrace FOOBAR.trc @main:+278

  Branch predictor configuration examples for 2-level predictor:
    Configurations:   N, M, W, X
      N   # entries in first level (# of shift register(s))
      W   width of shift register(s)
      M   # entries in 2nd level (# of counters, or other FSM)
      X   (yes-1/no-0) xor history and address for 2nd level index
    Sample predictors:
      GAg     : 1, W, 2^W, 0
      GAp     : 1, W, M (M > 2^W), 0
      PAg     : N, W, 2^W, 0
      PAp     : N, W, M (M == 2^(N+W)), 0
      gshare  : 1, W, 2^W, 1
  Predictor `comb' combines a bimodal and a 2-level predictor.

  The cache config parameter <config> has the following format:

    <name>:<nsets>:<bsize>:<assoc>:<repl>

    <name>   - name of the cache being defined
    <nsets>  - number of sets in the cache
    <bsize>  - block size of the cache
    <assoc>  - associativity of the cache
    <repl>   - block replacement strategy, 'l'-LRU, 'f'-FIFO, 'r'-random

    Examples:   -cache:dl1 dl1:4096:32:1:l
                -dtlb dtlb:128:4096:32:r

  Cache levels can be unified by pointing a level of the instruction cache
  hierarchy at the data cache hiearchy using the "dl1" and "dl2" cache
  configuration arguments.  Most sensible combinations are supported, e.g.,

    A unified l2 cache (il2 is pointed at dl2):
      -cache:il1 il1:128:64:1:l -cache:il2 dl2
      -cache:dl1 dl1:256:32:1:l -cache:dl2 ul2:1024:64:2:l

    Or, a fully unified cache hierarchy (il1 pointed at dl1):
      -cache:il1 dl1
      -cache:dl1 ul1:256:32:1:l -cache:dl2 ul2:1024:64:2:l



sim: ** starting performance simulation **

sim: ** simulation statistics **
sim_num_insn              100000007 # total number of instructions committed
sim_num_refs               40095830 # total number of loads and stores committed
sim_num_loads              29946759 # total number of loads committed
sim_num_stores         10149071.0000 # total number of stores committed
sim_num_branches           13420684 # total number of branches committed
sim_elapsed_time                120 # total simulation time in seconds
sim_inst_rate           833333.3917 # simulation speed (in insts/sec)
sim_total_insn            100000007 # total number of instructions executed
sim_total_refs             40095830 # total number of loads and stores executed
sim_total_loads            29946759 # total number of loads executed
sim_total_stores       10149071.0000 # total number of stores executed
sim_total_branches         13420684 # total number of branches executed
sim_cycle                  35165518 # total simulation time in cycles
sim_IPC                      2.8437 # instructions per cycle
sim_CPI                      0.3517 # cycles per instruction
sim_exec_BW                  2.8437 # total instructions (mis-spec + committed) per cycle
sim_IPB                      7.4512 # instruction per branch
IFQ_count                 542815318 # cumulative IFQ occupancy
IFQ_fcount                 33915294 # cumulative IFQ full count
ifq_occupancy               15.4360 # avg IFQ occupancy (insn's)
ifq_rate                     2.8437 # avg IFQ dispatch rate (insn/cycle)
ifq_latency                  5.4282 # avg IFQ occupant latency (cycle's)
ifq_full                     0.9644 # fraction of time (cycle's) IFQ was full
RUU_count                2056714175 # cumulative RUU occupancy
RUU_fcount                 17178814 # cumulative RUU full count
ruu_occupancy               58.4867 # avg RUU occupancy (insn's)
ruu_rate                     2.8437 # avg RUU dispatch rate (insn/cycle)
ruu_latency                 20.5671 # avg RUU occupant latency (cycle's)
ruu_full                     0.4885 # fraction of time (cycle's) RUU was full
LSQ_count                 634076816 # cumulative LSQ occupancy
LSQ_fcount                  6676860 # cumulative LSQ full count
lsq_occupancy               18.0312 # avg LSQ occupancy (insn's)
lsq_rate                     2.8437 # avg LSQ dispatch rate (insn/cycle)
lsq_latency                  6.3408 # avg LSQ occupant latency (cycle's)
lsq_full                     0.1899 # fraction of time (cycle's) LSQ was full
sim_slip                 2830886241 # total number of slip cycles
avg_sim_slip                28.3089 # the average slip between issue and retirement
il1.accesses              222591386 # total number of accesses
il1.hits                  222568569 # total number of hits
il1.misses                    22817 # total number of misses
il1.replacements              22562 # total number of replacements
il1.writebacks                    0 # total number of writebacks
il1.invalidations                 0 # total number of invalidations
il1.miss_rate                0.0001 # miss rate (i.e., misses/ref)
il1.repl_rate                0.0001 # replacement rate (i.e., repls/ref)
il1.wb_rate                  0.0000 # writeback rate (i.e., wrbks/ref)
il1.inv_rate                 0.0000 # invalidation rate (i.e., invs/ref)
dl1.accesses               36357822 # total number of accesses
dl1.hits                   36265182 # total number of hits
dl1.misses                    92640 # total number of misses
dl1.replacements              92384 # total number of replacements
dl1.writebacks                 7451 # total number of writebacks
dl1.invalidations                 0 # total number of invalidations
dl1.miss_rate                0.0025 # miss rate (i.e., misses/ref)
dl1.repl_rate                0.0025 # replacement rate (i.e., repls/ref)
dl1.wb_rate                  0.0002 # writeback rate (i.e., wrbks/ref)
dl1.inv_rate                 0.0000 # invalidation rate (i.e., invs/ref)
dl2.accesses                 122908 # total number of accesses
dl2.hits                      51291 # total number of hits
dl2.misses                    71617 # total number of misses
dl2.replacements              69569 # total number of replacements
dl2.writebacks                 1474 # total number of writebacks
dl2.invalidations                 0 # total number of invalidations
dl2.miss_rate                0.5827 # miss rate (i.e., misses/ref)
dl2.repl_rate                0.5660 # replacement rate (i.e., repls/ref)
dl2.wb_rate                  0.0120 # writeback rate (i.e., wrbks/ref)
dl2.inv_rate                 0.0000 # invalidation rate (i.e., invs/ref)
itlb.accesses             222591386 # total number of accesses
itlb.hits                 222591356 # total number of hits
itlb.misses                      30 # total number of misses
itlb.replacements                 0 # total number of replacements
itlb.writebacks                   0 # total number of writebacks
itlb.invalidations                0 # total number of invalidations
itlb.miss_rate               0.0000 # miss rate (i.e., misses/ref)
itlb.repl_rate               0.0000 # replacement rate (i.e., repls/ref)
itlb.wb_rate                 0.0000 # writeback rate (i.e., wrbks/ref)
itlb.inv_rate                0.0000 # invalidation rate (i.e., invs/ref)
dtlb.accesses              40095830 # total number of accesses
dtlb.hits                  40063873 # total number of hits
dtlb.misses                   31957 # total number of misses
dtlb.replacements             31829 # total number of replacements
dtlb.writebacks                   0 # total number of writebacks
dtlb.invalidations                0 # total number of invalidations
dtlb.miss_rate               0.0008 # miss rate (i.e., misses/ref)
dtlb.repl_rate               0.0008 # replacement rate (i.e., repls/ref)
dtlb.wb_rate                 0.0000 # writeback rate (i.e., wrbks/ref)
dtlb.inv_rate                0.0000 # invalidation rate (i.e., invs/ref)
rename_power           115016510.9532 # total power usage of rename unit
bpred_power            109581040.6471 # total power usage of bpred unit
window_power           1519714067.7421 # total power usage of instruction window
lsq_power              218797372.6884 # total power usage of load/store queue
regfile_power          884016908.3930 # total power usage of arch. regfile
icache_power           106645207.2856 # total power usage of icache
dcache_power           452854371.0311 # total power usage of dcache
dcache2_power          109117785.4691 # total power usage of dcache2
alu_power              1168276587.2599 # total power usage of alu
falu_power             1004400686.9219 # total power usage of falu
resultbus_power        1101669432.3753 # total power usage of resultbus
clock_power            2175349052.6964 # total power usage of clock
avg_rename_power             3.2707 # avg power usage of rename unit
avg_bpred_power              3.1162 # avg power usage of bpred unit
avg_window_power            43.2160 # avg power usage of instruction window
avg_lsq_power                6.2219 # avg power usage of lsq
avg_regfile_power           25.1387 # avg power usage of arch. regfile
avg_icache_power             3.0327 # avg power usage of icache
avg_dcache_power            12.8778 # avg power usage of dcache
avg_dcache2_power            3.1030 # avg power usage of dcache2
avg_alu_power               33.2222 # avg power usage of alu
avg_falu_power              28.5621 # avg power usage of falu
avg_resultbus_power         31.3281 # avg power usage of resultbus
avg_clock_power             61.8603 # avg power usage of clock
fetch_stage_power      216226247.9327 # total power usage of fetch stage
dispatch_stage_power   115016510.9532 # total power usage of dispatch stage
issue_stage_power      4570429616.5659 # total power usage of issue stage
avg_fetch_power              6.1488 # average power of fetch unit per cycle
avg_dispatch_power           3.2707 # average power of dispatch unit per cycle
avg_issue_power            129.9691 # average power of issue unit per cycle
total_power            7961038336.5412 # total power per cycle
avg_total_power_cycle      226.3876 # average total power per cycle
avg_total_power_cycle_nofp_nod2     194.7226 # average total power per cycle
avg_total_power_insn        79.6104 # average total power per insn
avg_total_power_insn_nofp_nod2      68.4752 # average total power per insn
rename_power_cc1       78782519.8415 # total power usage of rename unit_cc1
bpred_power_cc1              0.0000 # total power usage of bpred unit_cc1
window_power_cc1       1101623213.9494 # total power usage of instruction window_cc1
lsq_power_cc1          75628690.3630 # total power usage of lsq_cc1
regfile_power_cc1      552361334.7922 # total power usage of arch. regfile_cc1
icache_power_cc1       73068947.3800 # total power usage of icache_cc1
dcache_power_cc1       216831608.0317 # total power usage of dcache_cc1
dcache2_power_cc1       354519.7507 # total power usage of dcache2_cc1
alu_power_cc1          165092131.5158 # total power usage of alu_cc1
resultbus_power_cc1    831583029.9067 # total power usage of resultbus_cc1
clock_power_cc1        1176796921.4777 # total power usage of clock_cc1
avg_rename_power_cc1         2.2403 # avg power usage of rename unit_cc1
avg_bpred_power_cc1          0.0000 # avg power usage of bpred unit_cc1
avg_window_power_cc1        31.3268 # avg power usage of instruction window_cc1
avg_lsq_power_cc1            2.1506 # avg power usage of lsq_cc1
avg_regfile_power_cc1       15.7075 # avg power usage of arch. regfile_cc1
avg_icache_power_cc1         2.0779 # avg power usage of icache_cc1
avg_dcache_power_cc1         6.1660 # avg power usage of dcache_cc1
avg_dcache2_power_cc1        0.0101 # avg power usage of dcache2_cc1
avg_alu_power_cc1            4.6947 # avg power usage of alu_cc1
avg_resultbus_power_cc1      23.6477 # avg power usage of resultbus_cc1
avg_clock_power_cc1         33.4645 # avg power usage of clock_cc1
fetch_stage_power_cc1  73068947.3800 # total power usage of fetch stage_cc1
dispatch_stage_power_cc1 78782519.8415 # total power usage of dispatch stage_cc1
issue_stage_power_cc1  2391113193.5173 # total power usage of issue stage_cc1
avg_fetch_power_cc1          2.0779 # average power of fetch unit per cycle_cc1
avg_dispatch_power_cc1       2.2403 # average power of dispatch unit per cycle_cc1
avg_issue_power_cc1         67.9960 # average power of issue unit per cycle_cc1
total_power_cycle_cc1  4272122917.0087 # total power per cycle_cc1
avg_total_power_cycle_cc1     121.4861 # average total power per cycle_cc1
avg_total_power_insn_cc1      42.7212 # average total power per insn_cc1
rename_power_cc2       20441992.1840 # total power usage of rename unit_cc2
bpred_power_cc2              0.0000 # total power usage of bpred unit_cc2
window_power_cc2       384214395.6396 # total power usage of instruction window_cc2
lsq_power_cc2          33466181.8092 # total power usage of lsq_cc2
regfile_power_cc2      49623520.3723 # total power usage of arch. regfile_cc2
icache_power_cc2       73068947.3800 # total power usage of icache_cc2
dcache_power_cc2       117052154.7127 # total power usage of dcache_cc2
dcache2_power_cc2        95345.1673 # total power usage of dcache2_cc2
alu_power_cc2          120826256.7771 # total power usage of alu_cc2
resultbus_power_cc2    213898910.5604 # total power usage of resultbus_cc2
clock_power_cc2        384980548.0258 # total power usage of clock_cc2
avg_rename_power_cc2         0.5813 # avg power usage of rename unit_cc2
avg_bpred_power_cc2          0.0000 # avg power usage of bpred unit_cc2
avg_window_power_cc2        10.9259 # avg power usage of instruction window_cc2
avg_lsq_power_cc2            0.9517 # avg power usage of instruction lsq_cc2
avg_regfile_power_cc2        1.4111 # avg power usage of arch. regfile_cc2
avg_icache_power_cc2         2.0779 # avg power usage of icache_cc2
avg_dcache_power_cc2         3.3286 # avg power usage of dcache_cc2
avg_dcache2_power_cc2        0.0027 # avg power usage of dcache2_cc2
avg_alu_power_cc2            3.4359 # avg power usage of alu_cc2
avg_resultbus_power_cc2       6.0826 # avg power usage of resultbus_cc2
avg_clock_power_cc2         10.9477 # avg power usage of clock_cc2
fetch_stage_power_cc2  73068947.3800 # total power usage of fetch stage_cc2
dispatch_stage_power_cc2 20441992.1840 # total power usage of dispatch stage_cc2
issue_stage_power_cc2  869553244.6663 # total power usage of issue stage_cc2
avg_fetch_power_cc2          2.0779 # average power of fetch unit per cycle_cc2
avg_dispatch_power_cc2       0.5813 # average power of dispatch unit per cycle_cc2
avg_issue_power_cc2         24.7274 # average power of issue unit per cycle_cc2
total_power_cycle_cc2  1397668252.6284 # total power per cycle_cc2
avg_total_power_cycle_cc2      39.7454 # average total power per cycle_cc2
avg_total_power_insn_cc2      13.9767 # average total power per insn_cc2
rename_power_cc3       24065391.3076 # total power usage of rename unit_cc3
bpred_power_cc3        10958104.0559 # total power usage of bpred unit_cc3
window_power_cc3       413079753.7502 # total power usage of instruction window_cc3
lsq_power_cc3          47409603.0970 # total power usage of lsq_cc3
regfile_power_cc3      76737089.7851 # total power usage of arch. regfile_cc3
icache_power_cc3       76426573.3843 # total power usage of icache_cc3
dcache_power_cc3       141232438.3690 # total power usage of dcache_cc3
dcache2_power_cc3      10971672.5238 # total power usage of dcache2_cc3
alu_power_cc3          221144702.1875 # total power usage of alu_cc3
resultbus_power_cc3    235363663.7796 # total power usage of resultbus_cc3
clock_power_cc3        475584456.6358 # total power usage of clock_cc3
avg_rename_power_cc3         0.6843 # avg power usage of rename unit_cc3
avg_bpred_power_cc3          0.3116 # avg power usage of bpred unit_cc3
avg_window_power_cc3        11.7467 # avg power usage of instruction window_cc3
avg_lsq_power_cc3            1.3482 # avg power usage of instruction lsq_cc3
avg_regfile_power_cc3        2.1822 # avg power usage of arch. regfile_cc3
avg_icache_power_cc3         2.1733 # avg power usage of icache_cc3
avg_dcache_power_cc3         4.0162 # avg power usage of dcache_cc3
avg_dcache2_power_cc3        0.3120 # avg power usage of dcache2_cc3
avg_alu_power_cc3            6.2887 # avg power usage of alu_cc3
avg_resultbus_power_cc3       6.6930 # avg power usage of resultbus_cc3
avg_clock_power_cc3         13.5242 # avg power usage of clock_cc3
fetch_stage_power_cc3  87384677.4401 # total power usage of fetch stage_cc3
dispatch_stage_power_cc3 24065391.3076 # total power usage of dispatch stage_cc3
issue_stage_power_cc3  1069201833.7070 # total power usage of issue stage_cc3
avg_fetch_power_cc3          2.4850 # average power of fetch unit per cycle_cc3
avg_dispatch_power_cc3       0.6843 # average power of dispatch unit per cycle_cc3
avg_issue_power_cc3         30.4048 # average power of issue unit per cycle_cc3
total_power_cycle_cc3  1732973448.8757 # total power per cycle_cc3
avg_total_power_cycle_cc3      49.2805 # average total power per cycle_cc3
avg_total_power_insn_cc3      17.3297 # average total power per insn_cc3
total_rename_access       100000007 # total number accesses of rename unit
total_bpred_access                0 # total number accesses of bpred unit
total_window_access       357970962 # total number accesses of instruction window
total_lsq_access           43833838 # total number accesses of load/store queue
total_regfile_access      105177827 # total number accesses of arch. regfile
total_icache_access       222591386 # total number accesses of icache
total_dcache_access        36357822 # total number accesses of dcache
total_dcache2_access         122908 # total number accesses of dcache2
total_alu_access           99999365 # total number accesses of alu
total_resultbus_access    116526043 # total number accesses of resultbus
avg_rename_access            2.8437 # avg number accesses of rename unit
avg_bpred_access             0.0000 # avg number accesses of bpred unit
avg_window_access           10.1796 # avg number accesses of instruction window
avg_lsq_access               1.2465 # avg number accesses of lsq
avg_regfile_access           2.9909 # avg number accesses of arch. regfile
avg_icache_access            6.3298 # avg number accesses of icache
avg_dcache_access            1.0339 # avg number accesses of dcache
avg_dcache2_access           0.0035 # avg number accesses of dcache2
avg_alu_access               2.8437 # avg number accesses of alu
avg_resultbus_access         3.3136 # avg number accesses of resultbus
max_rename_access                16 # max number accesses of rename unit
max_bpred_access                  0 # max number accesses of bpred unit
max_window_access                41 # max number accesses of instruction window
max_lsq_access                    9 # max number accesses of load/store queue
max_regfile_access               39 # max number accesses of arch. regfile
max_icache_access                16 # max number accesses of icache
max_dcache_access                 8 # max number accesses of dcache
max_dcache2_access                5 # max number accesses of dcache2
max_alu_access                    7 # max number accesses of alu
max_resultbus_access              9 # max number accesses of resultbus
max_cycle_power_cc1        183.7656 # maximum cycle power usage of cc1
max_cycle_power_cc2         98.9096 # maximum cycle power usage of cc2
max_cycle_power_cc3        104.9166 # maximum cycle power usage of cc3
sim_invalid_addrs                 0 # total non-speculative bogus addresses seen (debug var)
ld_text_base           0x0120000000 # program text (code) segment base
ld_text_size                 876544 # program text (code) size in bytes
ld_data_base           0x0140000000 # program initialized data segment base
ld_data_size                 131616 # program init'ed `.data' and uninit'ed `.bss' size in bytes
ld_stack_base          0x011ff9b000 # program stack segment base (highest address in stack)
ld_stack_size                 16384 # program initial stack size
ld_prog_entry          0x0120067d78 # program entry point (initial PC)
ld_environ_base        0x011ff96c80 # program environment base address address
ld_target_big_endian              0 # target executable endian-ness, non-zero if big endian
mem.page_count                 1161 # total number of pages allocated
mem.page_mem                  9288k # total size of memory pages allocated
mem.ptab_misses                2407 # total first level page table misses
mem.ptab_accesses        1046614020 # total page table accesses
mem.ptab_miss_rate           0.0000 # first level page table miss rate

