sim-outorder: SimpleScalar/Alpha Tool Set version 3.0 of August, 2003.
Copyright (c) 1994-2003 by Todd M. Austin, Ph.D. and SimpleScalar, LLC.
All Rights Reserved. This version of SimpleScalar is licensed for academic
non-commercial use.  No portion of this work may be used by any commercial
entity, or for any commercial purpose, without the prior written permission
of SimpleScalar, LLC (info@simplescalar.com).


Processor Parameters:
Issue Width: 16
Window Size: 64
Number of Virtual Registers: 32
Number of Physical Registers: 64
Datapath Width: 64
Total Power Consumption: 228.388
Branch Predictor Power Consumption: 3.11615  (1.38%)
 branch target buffer power (W): 2.49493
 local predict power (W): 0.354432
 global predict power (W): 0.0996078
 chooser power (W): 0.0702439
 RAS power (W): 0.0969383
Rename Logic Power Consumption: 3.27072  (1.44%)
 Instruction Decode Power (W): 0.0639661
 RAT decode_power (W): 0.454058
 RAT wordline_power (W): 0.227603
 RAT bitline_power (W): 2.30694
 DCL Comparators (W): 0.218151
Instruction Window Power Consumption: 43.216  (19.1%)
 tagdrive (W): 2.9395
 tagmatch (W): 0.989695
 Selection Logic (W): 0.225484
 decode_power (W): 0.976583
 wordline_power (W): 1.0557
 bitline_power (W): 37.0291
Load/Store Queue Power Consumption: 6.22193  (2.75%)
 tagdrive (W): 2.49901
 tagmatch (W): 0.859464
 decode_power (W): 0.0756763
 wordline_power (W): 0.0433172
 bitline_power (W): 2.74446
Arch. Register File Power Consumption: 25.1387  (11.1%)
 decode_power (W): 0.454058
 wordline_power (W): 1.0557
 bitline_power (W): 23.629
Result Bus Power Consumption: 31.3281  (13.8%)
Total Clock Power: 61.8603  (27.3%)
Int ALU Power: 4.66013  (2.06%)
FP ALU Power: 28.5621  (12.6%)
Instruction Cache Power Consumption: 2.76773  (1.22%)
 decode_power (W): 0.151353
 wordline_power (W): 0.180479
 bitline_power (W): 1.42251
 senseamp_power (W): 0.768
 tagarray_power (W): 0.245382
Itlb_power (W): 0.264936 (0.117%)
Data Cache Power Consumption: 11.0709  (4.89%)
 decode_power (W): 0.60541
 wordline_power (W): 0.721917
 bitline_power (W): 5.69006
 senseamp_power (W): 3.072
 tagarray_power (W): 0.981529
Dtlb_power (W): 1.80688 (0.798%)
Level 2 Cache Power Consumption: 3.10298 (1.37%)
 decode_power (W): 0.19487
 wordline_power (W): 0.0430878
 bitline_power (W): 1.77274
 senseamp_power (W): 0.192
 tagarray_power (W): 0.900275
sim: loading EIO file: ../benchmarks/256.bzip2.program-ref.eio.gz
sim: command line: ./sim-outorder -config ../configs/current.config ../benchmarks/256.bzip2.program-ref.eio.gz 

sim: simulation started @ Tue Nov 24 13:58:02 2015, options follow:

sim-outorder: This simulator implements a very detailed out-of-order issue
superscalar processor with a two-level memory system and speculative
execution support.  This simulator is a performance simulator, tracking the
latency of all pipeline operations.

# -config                     # load configuration from a file
# -dumpconfig                 # dump configuration to a file
# -h                    false # print help message    
# -v                    false # verbose operation     
# -d                    false # enable debug message  
# -i                    false # start in Dlite debugger
-seed                       1 # random number generator seed (0 for timer seed)
# -q                    false # initialize and terminate immediately
# -chkpt               <null> # restore EIO trace execution from <fname>
# -redir:sim     ../results/30_23_lsq/256.bzip2.program-ref.eio.gz.out # redirect simulator output to file (non-interactive only)
# -redir:prog       /dev/null # redirect simulated program output to file
-nice                       0 # simulator scheduling priority
-freq            600000000.0000 # frequency             
-max:inst           100000000 # maximum number of inst's to execute
-fastfwd                    0 # number of insts skipped before timing starts
# -ptrace              <null> # generate pipetrace, i.e., <fname|stdout|stderr> <range>
-fetch:ifqsize             16 # instruction fetch queue size (in insts)
-fetch:mplat               15 # extra branch mis-prediction latency
-fetch:speed                1 # speed of front-end of machine relative to execution core
-bpred                perfect # branch predictor type {nottaken|taken|perfect|bimod|2lev|comb}
-bpred:bimod     2048 # bimodal predictor config (<table size>)
-bpred:2lev      1 8192 8 0 # 2-level predictor config (<l1size> <l2size> <hist_size> <xor>)
-bpred:comb      1024 # combining predictor config (<meta_table_size>)
-bpred:ras                  8 # return address stack size (0 for no return stack)
-bpred:btb       512 4 # BTB config (<num_sets> <associativity>)
# -bpred:spec_update       <null> # speculative predictors update in {ID|WB} (default non-spec)
-decode:width              16 # instruction decode B/W (insts/cycle)
-issue:width               16 # instruction issue B/W (insts/cycle)
-issue:inorder          false # run pipeline with in-order issue
-issue:wrongpath         true # issue instructions down wrong execution paths
-commit:width              16 # instruction commit B/W (insts/cycle)
-ruu:size                  64 # register update unit (RUU) size
-lsq:size                  32 # load/store queue (LSQ) size
-cache:dl1       dl1:32:64:8:f # l1 data cache config, i.e., {<config>|none}
-cache:dl1lat               1 # l1 data cache hit latency (in cycles)
-cache:dl2       dl2:256:64:8:f # l2 data cache config, i.e., {<config>|none}
-cache:dl2lat               2 # l2 data cache hit latency (in cycles)
-cache:il1       il1:32:64:8:f # l1 inst cache config, i.e., {<config>|dl1|dl2|none}
-cache:il1lat               1 # l1 instruction cache hit latency (in cycles)
-cache:il2                dl2 # l2 instruction cache config, i.e., {<config>|dl2|none}
-cache:il2lat               2 # l2 instruction cache hit latency (in cycles)
-cache:flush            false # flush caches on system calls
-cache:icompress        false # convert 64-bit inst addresses to 32-bit inst equivalents
-mem:lat         103 1 # memory access latency (<first_chunk> <inter_chunk>)
-mem:width                  8 # memory access bus width (in bytes)
-tlb:itlb        itlb:16:4096:4:l # instruction TLB config, i.e., {<config>|none}
-tlb:dtlb        dtlb:32:4096:4:l # data TLB config, i.e., {<config>|none}
-tlb:lat                   30 # inst/data TLB miss latency (in cycles)
-res:ialu                   4 # total number of integer ALU's available
-res:imult                  2 # total number of integer multiplier/dividers available
-res:memport                4 # total number of memory system ports available (to CPU)
-res:fpalu                  8 # total number of floating point ALU's available
-res:fpmult                 2 # total number of floating point multiplier/dividers available
# -pcstat              <null> # profile stat(s) against text addr's (mult uses ok)
-bugcompat              false # operate in backward-compatible bugs mode (for testing only)

  Pipetrace range arguments are formatted as follows:

    {{@|#}<start>}:{{@|#|+}<end>}

  Both ends of the range are optional, if neither are specified, the entire
  execution is traced.  Ranges that start with a `@' designate an address
  range to be traced, those that start with an `#' designate a cycle count
  range.  All other range values represent an instruction count range.  The
  second argument, if specified with a `+', indicates a value relative
  to the first argument, e.g., 1000:+100 == 1000:1100.  Program symbols may
  be used in all contexts.

    Examples:   -ptrace FOO.trc #0:#1000
                -ptrace BAR.trc @2000:
                -ptrace BLAH.trc :1500
                -ptrace UXXE.trc :
                -ptrace FOOBAR.trc @main:+278

  Branch predictor configuration examples for 2-level predictor:
    Configurations:   N, M, W, X
      N   # entries in first level (# of shift register(s))
      W   width of shift register(s)
      M   # entries in 2nd level (# of counters, or other FSM)
      X   (yes-1/no-0) xor history and address for 2nd level index
    Sample predictors:
      GAg     : 1, W, 2^W, 0
      GAp     : 1, W, M (M > 2^W), 0
      PAg     : N, W, 2^W, 0
      PAp     : N, W, M (M == 2^(N+W)), 0
      gshare  : 1, W, 2^W, 1
  Predictor `comb' combines a bimodal and a 2-level predictor.

  The cache config parameter <config> has the following format:

    <name>:<nsets>:<bsize>:<assoc>:<repl>

    <name>   - name of the cache being defined
    <nsets>  - number of sets in the cache
    <bsize>  - block size of the cache
    <assoc>  - associativity of the cache
    <repl>   - block replacement strategy, 'l'-LRU, 'f'-FIFO, 'r'-random

    Examples:   -cache:dl1 dl1:4096:32:1:l
                -dtlb dtlb:128:4096:32:r

  Cache levels can be unified by pointing a level of the instruction cache
  hierarchy at the data cache hiearchy using the "dl1" and "dl2" cache
  configuration arguments.  Most sensible combinations are supported, e.g.,

    A unified l2 cache (il2 is pointed at dl2):
      -cache:il1 il1:128:64:1:l -cache:il2 dl2
      -cache:dl1 dl1:256:32:1:l -cache:dl2 ul2:1024:64:2:l

    Or, a fully unified cache hierarchy (il1 pointed at dl1):
      -cache:il1 dl1
      -cache:dl1 ul1:256:32:1:l -cache:dl2 ul2:1024:64:2:l



sim: ** starting performance simulation **

sim: ** simulation statistics **
sim_num_insn              100000002 # total number of instructions committed
sim_num_refs               38174849 # total number of loads and stores committed
sim_num_loads              26517388 # total number of loads committed
sim_num_stores         11657461.0000 # total number of stores committed
sim_num_branches           10608449 # total number of branches committed
sim_elapsed_time                126 # total simulation time in seconds
sim_inst_rate           793650.8095 # simulation speed (in insts/sec)
sim_total_insn            100000002 # total number of instructions executed
sim_total_refs             38174849 # total number of loads and stores executed
sim_total_loads            26517388 # total number of loads executed
sim_total_stores       11657461.0000 # total number of stores executed
sim_total_branches         10608449 # total number of branches executed
sim_cycle                  41701928 # total simulation time in cycles
sim_IPC                      2.3980 # instructions per cycle
sim_CPI                      0.4170 # cycles per instruction
sim_exec_BW                  2.3980 # total instructions (mis-spec + committed) per cycle
sim_IPB                      9.4264 # instruction per branch
IFQ_count                 667006785 # cumulative IFQ occupancy
IFQ_fcount                 41687847 # cumulative IFQ full count
ifq_occupancy               15.9946 # avg IFQ occupancy (insn's)
ifq_rate                     2.3980 # avg IFQ dispatch rate (insn/cycle)
ifq_latency                  6.6701 # avg IFQ occupant latency (cycle's)
ifq_full                     0.9997 # fraction of time (cycle's) IFQ was full
RUU_count                2635329406 # cumulative RUU occupancy
RUU_fcount                 35631218 # cumulative RUU full count
ruu_occupancy               63.1944 # avg RUU occupancy (insn's)
ruu_rate                     2.3980 # avg RUU dispatch rate (insn/cycle)
ruu_latency                 26.3533 # avg RUU occupant latency (cycle's)
ruu_full                     0.8544 # fraction of time (cycle's) RUU was full
LSQ_count                1036120149 # cumulative LSQ occupancy
LSQ_fcount                  1604695 # cumulative LSQ full count
lsq_occupancy               24.8459 # avg LSQ occupancy (insn's)
lsq_rate                     2.3980 # avg LSQ dispatch rate (insn/cycle)
lsq_latency                 10.3612 # avg LSQ occupant latency (cycle's)
lsq_full                     0.0385 # fraction of time (cycle's) LSQ was full
sim_slip                 3809623433 # total number of slip cycles
avg_sim_slip                38.0962 # the average slip between issue and retirement
il1.accesses              173613776 # total number of accesses
il1.hits                  173613648 # total number of hits
il1.misses                      128 # total number of misses
il1.replacements                  0 # total number of replacements
il1.writebacks                    0 # total number of writebacks
il1.invalidations                 0 # total number of invalidations
il1.miss_rate                0.0000 # miss rate (i.e., misses/ref)
il1.repl_rate                0.0000 # replacement rate (i.e., repls/ref)
il1.wb_rate                  0.0000 # writeback rate (i.e., wrbks/ref)
il1.inv_rate                 0.0000 # invalidation rate (i.e., invs/ref)
dl1.accesses               37543060 # total number of accesses
dl1.hits                   37212939 # total number of hits
dl1.misses                   330121 # total number of misses
dl1.replacements             329865 # total number of replacements
dl1.writebacks                40593 # total number of writebacks
dl1.invalidations                 0 # total number of invalidations
dl1.miss_rate                0.0088 # miss rate (i.e., misses/ref)
dl1.repl_rate                0.0088 # replacement rate (i.e., repls/ref)
dl1.wb_rate                  0.0011 # writeback rate (i.e., wrbks/ref)
dl1.inv_rate                 0.0000 # invalidation rate (i.e., invs/ref)
dl2.accesses                 370842 # total number of accesses
dl2.hits                     176783 # total number of hits
dl2.misses                   194059 # total number of misses
dl2.replacements             192011 # total number of replacements
dl2.writebacks                12664 # total number of writebacks
dl2.invalidations                 0 # total number of invalidations
dl2.miss_rate                0.5233 # miss rate (i.e., misses/ref)
dl2.repl_rate                0.5178 # replacement rate (i.e., repls/ref)
dl2.wb_rate                  0.0341 # writeback rate (i.e., wrbks/ref)
dl2.inv_rate                 0.0000 # invalidation rate (i.e., invs/ref)
itlb.accesses             173613776 # total number of accesses
itlb.hits                 173613771 # total number of hits
itlb.misses                       5 # total number of misses
itlb.replacements                 0 # total number of replacements
itlb.writebacks                   0 # total number of writebacks
itlb.invalidations                0 # total number of invalidations
itlb.miss_rate               0.0000 # miss rate (i.e., misses/ref)
itlb.repl_rate               0.0000 # replacement rate (i.e., repls/ref)
itlb.wb_rate                 0.0000 # writeback rate (i.e., wrbks/ref)
itlb.inv_rate                0.0000 # invalidation rate (i.e., invs/ref)
dtlb.accesses              38174826 # total number of accesses
dtlb.hits                  38172964 # total number of hits
dtlb.misses                    1862 # total number of misses
dtlb.replacements              1734 # total number of replacements
dtlb.writebacks                   0 # total number of writebacks
dtlb.invalidations                0 # total number of invalidations
dtlb.miss_rate               0.0000 # miss rate (i.e., misses/ref)
dtlb.repl_rate               0.0000 # replacement rate (i.e., repls/ref)
dtlb.wb_rate                 0.0000 # writeback rate (i.e., wrbks/ref)
dtlb.inv_rate                0.0000 # invalidation rate (i.e., invs/ref)
rename_power           136395268.1613 # total power usage of rename unit
bpred_power            129949476.8548 # total power usage of bpred unit
window_power           1802191756.0676 # total power usage of instruction window
lsq_power              259466454.6350 # total power usage of load/store queue
regfile_power          1048334037.4688 # total power usage of arch. regfile
icache_power           126467943.8545 # total power usage of icache
dcache_power           537028926.3260 # total power usage of dcache
dcache2_power          129400113.8531 # total power usage of dcache2
alu_power              1385430641.0408 # total power usage of alu
falu_power             1191094217.0961 # total power usage of falu
resultbus_power        1306442844.2457 # total power usage of resultbus
clock_power            2579693255.6015 # total power usage of clock
avg_rename_power             3.2707 # avg power usage of rename unit
avg_bpred_power              3.1162 # avg power usage of bpred unit
avg_window_power            43.2160 # avg power usage of instruction window
avg_lsq_power                6.2219 # avg power usage of lsq
avg_regfile_power           25.1387 # avg power usage of arch. regfile
avg_icache_power             3.0327 # avg power usage of icache
avg_dcache_power            12.8778 # avg power usage of dcache
avg_dcache2_power            3.1030 # avg power usage of dcache2
avg_alu_power               33.2222 # avg power usage of alu
avg_falu_power              28.5621 # avg power usage of falu
avg_resultbus_power         31.3281 # avg power usage of resultbus
avg_clock_power             61.8603 # avg power usage of clock
fetch_stage_power      256417420.7093 # total power usage of fetch stage
dispatch_stage_power   136395268.1613 # total power usage of dispatch stage
issue_stage_power      5419960736.1682 # total power usage of issue stage
avg_fetch_power              6.1488 # average power of fetch unit per cycle
avg_dispatch_power           3.2707 # average power of dispatch unit per cycle
avg_issue_power            129.9691 # average power of issue unit per cycle
total_power            9440800718.1091 # total power per cycle
avg_total_power_cycle      226.3876 # average total power per cycle
avg_total_power_cycle_nofp_nod2     194.7226 # average total power per cycle
avg_total_power_insn        94.4080 # average total power per insn
avg_total_power_insn_nofp_nod2      81.2031 # average total power per insn
rename_power_cc1       77120703.7420 # total power usage of rename unit_cc1
bpred_power_cc1              0.0000 # total power usage of bpred unit_cc1
window_power_cc1       1088488053.7460 # total power usage of instruction window_cc1
lsq_power_cc1          81744214.8463 # total power usage of lsq_cc1
regfile_power_cc1      543851077.8184 # total power usage of arch. regfile_cc1
icache_power_cc1       71507622.6767 # total power usage of icache_cc1
dcache_power_cc1       250136354.2915 # total power usage of dcache_cc1
dcache2_power_cc1       996504.6997 # total power usage of dcache2_cc1
alu_power_cc1          125908428.5384 # total power usage of alu_cc1
resultbus_power_cc1    808895296.3381 # total power usage of resultbus_cc1
clock_power_cc1        1033421074.2990 # total power usage of clock_cc1
avg_rename_power_cc1         1.8493 # avg power usage of rename unit_cc1
avg_bpred_power_cc1          0.0000 # avg power usage of bpred unit_cc1
avg_window_power_cc1        26.1016 # avg power usage of instruction window_cc1
avg_lsq_power_cc1            1.9602 # avg power usage of lsq_cc1
avg_regfile_power_cc1       13.0414 # avg power usage of arch. regfile_cc1
avg_icache_power_cc1         1.7147 # avg power usage of icache_cc1
avg_dcache_power_cc1         5.9982 # avg power usage of dcache_cc1
avg_dcache2_power_cc1        0.0239 # avg power usage of dcache2_cc1
avg_alu_power_cc1            3.0192 # avg power usage of alu_cc1
avg_resultbus_power_cc1      19.3971 # avg power usage of resultbus_cc1
avg_clock_power_cc1         24.7811 # avg power usage of clock_cc1
fetch_stage_power_cc1  71507622.6767 # total power usage of fetch stage_cc1
dispatch_stage_power_cc1 77120703.7420 # total power usage of dispatch stage_cc1
issue_stage_power_cc1  2356168852.4601 # total power usage of issue stage_cc1
avg_fetch_power_cc1          1.7147 # average power of fetch unit per cycle_cc1
avg_dispatch_power_cc1       1.8493 # average power of dispatch unit per cycle_cc1
avg_issue_power_cc1         56.5002 # average power of issue unit per cycle_cc1
total_power_cycle_cc1  4082069330.9962 # total power per cycle_cc1
avg_total_power_cycle_cc1      97.8868 # average total power per cycle_cc1
avg_total_power_insn_cc1      40.8207 # average total power per insn_cc1
rename_power_cc2       20441991.1623 # total power usage of rename unit_cc2
bpred_power_cc2              0.0000 # total power usage of bpred unit_cc2
window_power_cc2       375624243.5603 # total power usage of instruction window_cc2
lsq_power_cc2          30223406.1676 # total power usage of lsq_cc2
regfile_power_cc2      53531194.8703 # total power usage of arch. regfile_cc2
icache_power_cc2       71507622.6767 # total power usage of icache_cc2
dcache_power_cc2       120867968.0399 # total power usage of dcache_cc2
dcache2_power_cc2       287678.5280 # total power usage of dcache2_cc2
alu_power_cc2          116499764.5286 # total power usage of alu_cc2
resultbus_power_cc2    212766032.0155 # total power usage of resultbus_cc2
clock_power_cc2        323475044.5394 # total power usage of clock_cc2
avg_rename_power_cc2         0.4902 # avg power usage of rename unit_cc2
avg_bpred_power_cc2          0.0000 # avg power usage of bpred unit_cc2
avg_window_power_cc2         9.0074 # avg power usage of instruction window_cc2
avg_lsq_power_cc2            0.7247 # avg power usage of instruction lsq_cc2
avg_regfile_power_cc2        1.2837 # avg power usage of arch. regfile_cc2
avg_icache_power_cc2         1.7147 # avg power usage of icache_cc2
avg_dcache_power_cc2         2.8984 # avg power usage of dcache_cc2
avg_dcache2_power_cc2        0.0069 # avg power usage of dcache2_cc2
avg_alu_power_cc2            2.7936 # avg power usage of alu_cc2
avg_resultbus_power_cc2       5.1021 # avg power usage of resultbus_cc2
avg_clock_power_cc2          7.7568 # avg power usage of clock_cc2
fetch_stage_power_cc2  71507622.6767 # total power usage of fetch stage_cc2
dispatch_stage_power_cc2 20441991.1623 # total power usage of dispatch stage_cc2
issue_stage_power_cc2  856269092.8398 # total power usage of issue stage_cc2
avg_fetch_power_cc2          1.7147 # average power of fetch unit per cycle_cc2
avg_dispatch_power_cc2       0.4902 # average power of dispatch unit per cycle_cc2
avg_issue_power_cc2         20.5331 # average power of issue unit per cycle_cc2
total_power_cycle_cc2  1325224946.0885 # total power per cycle_cc2
avg_total_power_cycle_cc2      31.7785 # average total power per cycle_cc2
avg_total_power_insn_cc2      13.2522 # average total power per insn_cc2
rename_power_cc3       26369447.6231 # total power usage of rename unit_cc3
bpred_power_cc3        12994947.6742 # total power usage of bpred unit_cc3
window_power_cc3       435977920.1899 # total power usage of instruction window_cc3
lsq_power_cc3          47733187.0708 # total power usage of lsq_cc3
regfile_power_cc3      99294176.8357 # total power usage of arch. regfile_cc3
icache_power_cc3       77003654.8153 # total power usage of icache_cc3
dcache_power_cc3       149843131.6740 # total power usage of dcache_cc3
dcache2_power_cc3      13128041.8596 # total power usage of dcache2_cc3
alu_power_cc3          242451985.4953 # total power usage of alu_cc3
resultbus_power_cc3    257128151.2767 # total power usage of resultbus_cc3
clock_power_cc3        470889365.3175 # total power usage of clock_cc3
avg_rename_power_cc3         0.6323 # avg power usage of rename unit_cc3
avg_bpred_power_cc3          0.3116 # avg power usage of bpred unit_cc3
avg_window_power_cc3        10.4546 # avg power usage of instruction window_cc3
avg_lsq_power_cc3            1.1446 # avg power usage of instruction lsq_cc3
avg_regfile_power_cc3        2.3810 # avg power usage of arch. regfile_cc3
avg_icache_power_cc3         1.8465 # avg power usage of icache_cc3
avg_dcache_power_cc3         3.5932 # avg power usage of dcache_cc3
avg_dcache2_power_cc3        0.3148 # avg power usage of dcache2_cc3
avg_alu_power_cc3            5.8139 # avg power usage of alu_cc3
avg_resultbus_power_cc3       6.1659 # avg power usage of resultbus_cc3
avg_clock_power_cc3         11.2918 # avg power usage of clock_cc3
fetch_stage_power_cc3  89998602.4896 # total power usage of fetch stage_cc3
dispatch_stage_power_cc3 26369447.6231 # total power usage of dispatch stage_cc3
issue_stage_power_cc3  1146262417.5663 # total power usage of issue stage_cc3
avg_fetch_power_cc3          2.1581 # average power of fetch unit per cycle_cc3
avg_dispatch_power_cc3       0.6323 # average power of dispatch unit per cycle_cc3
avg_issue_power_cc3         27.4870 # average power of issue unit per cycle_cc3
total_power_cycle_cc3  1832814009.8323 # total power per cycle_cc3
avg_total_power_cycle_cc3      43.9503 # average total power per cycle_cc3
avg_total_power_insn_cc3      18.3281 # average total power per insn_cc3
total_rename_access       100000002 # total number accesses of rename unit
total_bpred_access                0 # total number accesses of bpred unit
total_window_access       343130712 # total number accesses of instruction window
total_lsq_access           38806594 # total number accesses of load/store queue
total_regfile_access      111539351 # total number accesses of arch. regfile
total_icache_access       173613776 # total number accesses of icache
total_dcache_access        37543060 # total number accesses of dcache
total_dcache2_access         370842 # total number accesses of dcache2
total_alu_access           99996887 # total number accesses of alu
total_resultbus_access    115908883 # total number accesses of resultbus
avg_rename_access            2.3980 # avg number accesses of rename unit
avg_bpred_access             0.0000 # avg number accesses of bpred unit
avg_window_access            8.2282 # avg number accesses of instruction window
avg_lsq_access               0.9306 # avg number accesses of lsq
avg_regfile_access           2.6747 # avg number accesses of arch. regfile
avg_icache_access            4.1632 # avg number accesses of icache
avg_dcache_access            0.9003 # avg number accesses of dcache
avg_dcache2_access           0.0089 # avg number accesses of dcache2
avg_alu_access               2.3979 # avg number accesses of alu
avg_resultbus_access         2.7795 # avg number accesses of resultbus
max_rename_access                16 # max number accesses of rename unit
max_bpred_access                  0 # max number accesses of bpred unit
max_window_access                40 # max number accesses of instruction window
max_lsq_access                   10 # max number accesses of load/store queue
max_regfile_access               32 # max number accesses of arch. regfile
max_icache_access                16 # max number accesses of icache
max_dcache_access                 8 # max number accesses of dcache
max_dcache2_access                5 # max number accesses of dcache2
max_alu_access                    6 # max number accesses of alu
max_resultbus_access             15 # max number accesses of resultbus
max_cycle_power_cc1        176.1722 # maximum cycle power usage of cc1
max_cycle_power_cc2         91.1449 # maximum cycle power usage of cc2
max_cycle_power_cc3         98.1927 # maximum cycle power usage of cc3
sim_invalid_addrs                 0 # total non-speculative bogus addresses seen (debug var)
ld_text_base           0x0120000000 # program text (code) segment base
ld_text_size                 196608 # program text (code) size in bytes
ld_data_base           0x0140000000 # program initialized data segment base
ld_data_size                 146544 # program init'ed `.data' and uninit'ed `.bss' size in bytes
ld_stack_base          0x011ff9b000 # program stack segment base (highest address in stack)
ld_stack_size                 16384 # program initial stack size
ld_prog_entry          0x012000a7e0 # program entry point (initial PC)
ld_environ_base        0x011ff96e20 # program environment base address address
ld_target_big_endian              0 # target executable endian-ness, non-zero if big endian
mem.page_count                22960 # total number of pages allocated
mem.page_mem                183680k # total size of memory pages allocated
mem.ptab_misses             1453328 # total first level page table misses
mem.ptab_accesses         948488312 # total page table accesses
mem.ptab_miss_rate           0.0015 # first level page table miss rate

