sim-outorder: SimpleScalar/Alpha Tool Set version 3.0 of August, 2003.
Copyright (c) 1994-2003 by Todd M. Austin, Ph.D. and SimpleScalar, LLC.
All Rights Reserved. This version of SimpleScalar is licensed for academic
non-commercial use.  No portion of this work may be used by any commercial
entity, or for any commercial purpose, without the prior written permission
of SimpleScalar, LLC (info@simplescalar.com).


Processor Parameters:
Issue Width: 4
Window Size: 16
Number of Virtual Registers: 32
Number of Physical Registers: 16
Datapath Width: 64
Total Power Consumption: 130.433
Branch Predictor Power Consumption: 2.84969  (2.22%)
 branch target buffer power (W): 2.49493
 local predict power (W): 0.0879711
 global predict power (W): 0.0996078
 chooser power (W): 0.0702439
 RAS power (W): 0.0969383
Rename Logic Power Consumption: 0.417965  (0.325%)
 Instruction Decode Power (W): 0.0159915
 RAT decode_power (W): 0.113514
 RAT wordline_power (W): 0.0307815
 RAT bitline_power (W): 0.246771
 DCL Comparators (W): 0.0109075
Instruction Window Power Consumption: 2.20432  (1.72%)
 tagdrive (W): 0.0943488
 tagmatch (W): 0.033695
 Selection Logic (W): 0.0134217
 decode_power (W): 0.0532503
 wordline_power (W): 0.0844643
 bitline_power (W): 1.92514
Load/Store Queue Power Consumption: 6.38923  (4.97%)
 tagdrive (W): 2.22773
 tagmatch (W): 0.482855
 decode_power (W): 0.0319831
 wordline_power (W): 0.139808
 bitline_power (W): 3.50685
Arch. Register File Power Consumption: 3.57247  (2.78%)
 decode_power (W): 0.113514
 wordline_power (W): 0.0844643
 bitline_power (W): 3.37449
Result Bus Power Consumption: 4.18077  (3.26%)
Total Clock Power: 39.046  (30.4%)
Int ALU Power: 9.32026  (7.26%)
FP ALU Power: 28.5621  (22.2%)
Instruction Cache Power Consumption: 2.76773  (2.15%)
 decode_power (W): 0.151353
 wordline_power (W): 0.180479
 bitline_power (W): 1.42251
 senseamp_power (W): 0.768
 tagarray_power (W): 0.245382
Itlb_power (W): 0.264834 (0.206%)
Data Cache Power Consumption: 22.1418  (17.2%)
 decode_power (W): 1.21082
 wordline_power (W): 1.44383
 bitline_power (W): 11.3801
 senseamp_power (W): 6.144
 tagarray_power (W): 1.96306
Dtlb_power (W): 3.61295 (2.81%)
Level 2 Cache Power Consumption: 3.10298 (2.42%)
 decode_power (W): 0.19487
 wordline_power (W): 0.0430878
 bitline_power (W): 1.77274
 senseamp_power (W): 0.192
 tagarray_power (W): 0.900275
sim: loading EIO file: ../benchmarks/164.gzip.random-ref.eio.gz
sim: command line: ./sim-outorder -config ../configs/current.config ../benchmarks/164.gzip.random-ref.eio.gz 

sim: simulation started @ Sun Nov 22 21:53:15 2015, options follow:

sim-outorder: This simulator implements a very detailed out-of-order issue
superscalar processor with a two-level memory system and speculative
execution support.  This simulator is a performance simulator, tracking the
latency of all pipeline operations.

# -config                     # load configuration from a file
# -dumpconfig                 # dump configuration to a file
# -h                    false # print help message    
# -v                    false # verbose operation     
# -d                    false # enable debug message  
# -i                    false # start in Dlite debugger
-seed                       1 # random number generator seed (0 for timer seed)
# -q                    false # initialize and terminate immediately
# -chkpt               <null> # restore EIO trace execution from <fname>
# -redir:sim     ../results/max_num_fus/164.gzip.random-ref.eio.gz.out # redirect simulator output to file (non-interactive only)
# -redir:prog       /dev/null # redirect simulated program output to file
-nice                       0 # simulator scheduling priority
-freq            600000000.0000 # frequency             
-max:inst           100000000 # maximum number of inst's to execute
-fastfwd                    0 # number of insts skipped before timing starts
# -ptrace              <null> # generate pipetrace, i.e., <fname|stdout|stderr> <range>
-fetch:ifqsize              4 # instruction fetch queue size (in insts)
-fetch:mplat                3 # extra branch mis-prediction latency
-fetch:speed                1 # speed of front-end of machine relative to execution core
-bpred                perfect # branch predictor type {nottaken|taken|perfect|bimod|2lev|comb}
-bpred:bimod     2048 # bimodal predictor config (<table size>)
-bpred:2lev      1 1024 8 0 # 2-level predictor config (<l1size> <l2size> <hist_size> <xor>)
-bpred:comb      1024 # combining predictor config (<meta_table_size>)
-bpred:ras                  8 # return address stack size (0 for no return stack)
-bpred:btb       512 4 # BTB config (<num_sets> <associativity>)
# -bpred:spec_update       <null> # speculative predictors update in {ID|WB} (default non-spec)
-decode:width               4 # instruction decode B/W (insts/cycle)
-issue:width                4 # instruction issue B/W (insts/cycle)
-issue:inorder          false # run pipeline with in-order issue
-issue:wrongpath         true # issue instructions down wrong execution paths
-commit:width               4 # instruction commit B/W (insts/cycle)
-ruu:size                  16 # register update unit (RUU) size
-lsq:size                   8 # load/store queue (LSQ) size
-cache:dl1       dl1:32:64:8:f # l1 data cache config, i.e., {<config>|none}
-cache:dl1lat               1 # l1 data cache hit latency (in cycles)
-cache:dl2       dl2:256:64:8:f # l2 data cache config, i.e., {<config>|none}
-cache:dl2lat               2 # l2 data cache hit latency (in cycles)
-cache:il1       il1:32:64:8:f # l1 inst cache config, i.e., {<config>|dl1|dl2|none}
-cache:il1lat               1 # l1 instruction cache hit latency (in cycles)
-cache:il2                dl2 # l2 instruction cache config, i.e., {<config>|dl2|none}
-cache:il2lat               2 # l2 instruction cache hit latency (in cycles)
-cache:flush            false # flush caches on system calls
-cache:icompress        false # convert 64-bit inst addresses to 32-bit inst equivalents
-mem:lat         18 1 # memory access latency (<first_chunk> <inter_chunk>)
-mem:width                  8 # memory access bus width (in bytes)
-tlb:itlb        itlb:16:4096:4:l # instruction TLB config, i.e., {<config>|none}
-tlb:dtlb        dtlb:32:4096:4:l # data TLB config, i.e., {<config>|none}
-tlb:lat                   30 # inst/data TLB miss latency (in cycles)
-res:ialu                   8 # total number of integer ALU's available
-res:imult                  8 # total number of integer multiplier/dividers available
-res:memport                8 # total number of memory system ports available (to CPU)
-res:fpalu                  8 # total number of floating point ALU's available
-res:fpmult                 8 # total number of floating point multiplier/dividers available
# -pcstat              <null> # profile stat(s) against text addr's (mult uses ok)
-bugcompat              false # operate in backward-compatible bugs mode (for testing only)

  Pipetrace range arguments are formatted as follows:

    {{@|#}<start>}:{{@|#|+}<end>}

  Both ends of the range are optional, if neither are specified, the entire
  execution is traced.  Ranges that start with a `@' designate an address
  range to be traced, those that start with an `#' designate a cycle count
  range.  All other range values represent an instruction count range.  The
  second argument, if specified with a `+', indicates a value relative
  to the first argument, e.g., 1000:+100 == 1000:1100.  Program symbols may
  be used in all contexts.

    Examples:   -ptrace FOO.trc #0:#1000
                -ptrace BAR.trc @2000:
                -ptrace BLAH.trc :1500
                -ptrace UXXE.trc :
                -ptrace FOOBAR.trc @main:+278

  Branch predictor configuration examples for 2-level predictor:
    Configurations:   N, M, W, X
      N   # entries in first level (# of shift register(s))
      W   width of shift register(s)
      M   # entries in 2nd level (# of counters, or other FSM)
      X   (yes-1/no-0) xor history and address for 2nd level index
    Sample predictors:
      GAg     : 1, W, 2^W, 0
      GAp     : 1, W, M (M > 2^W), 0
      PAg     : N, W, 2^W, 0
      PAp     : N, W, M (M == 2^(N+W)), 0
      gshare  : 1, W, 2^W, 1
  Predictor `comb' combines a bimodal and a 2-level predictor.

  The cache config parameter <config> has the following format:

    <name>:<nsets>:<bsize>:<assoc>:<repl>

    <name>   - name of the cache being defined
    <nsets>  - number of sets in the cache
    <bsize>  - block size of the cache
    <assoc>  - associativity of the cache
    <repl>   - block replacement strategy, 'l'-LRU, 'f'-FIFO, 'r'-random

    Examples:   -cache:dl1 dl1:4096:32:1:l
                -dtlb dtlb:128:4096:32:r

  Cache levels can be unified by pointing a level of the instruction cache
  hierarchy at the data cache hiearchy using the "dl1" and "dl2" cache
  configuration arguments.  Most sensible combinations are supported, e.g.,

    A unified l2 cache (il2 is pointed at dl2):
      -cache:il1 il1:128:64:1:l -cache:il2 dl2
      -cache:dl1 dl1:256:32:1:l -cache:dl2 ul2:1024:64:2:l

    Or, a fully unified cache hierarchy (il1 pointed at dl1):
      -cache:il1 dl1
      -cache:dl1 ul1:256:32:1:l -cache:dl2 ul2:1024:64:2:l



sim: ** starting performance simulation **

sim: ** simulation statistics **
sim_num_insn              100000002 # total number of instructions committed
sim_num_refs               39844987 # total number of loads and stores committed
sim_num_loads              28609474 # total number of loads committed
sim_num_stores         11235513.0000 # total number of stores committed
sim_num_branches           12633928 # total number of branches committed
sim_elapsed_time                120 # total simulation time in seconds
sim_inst_rate           833333.3500 # simulation speed (in insts/sec)
sim_total_insn            100000002 # total number of instructions executed
sim_total_refs             39844987 # total number of loads and stores executed
sim_total_loads            28609474 # total number of loads executed
sim_total_stores       11235513.0000 # total number of stores executed
sim_total_branches         12633928 # total number of branches executed
sim_cycle                  42364660 # total simulation time in cycles
sim_IPC                      2.3605 # instructions per cycle
sim_CPI                      0.4236 # cycles per instruction
sim_exec_BW                  2.3605 # total instructions (mis-spec + committed) per cycle
sim_IPB                      7.9152 # instruction per branch
IFQ_count                 169446908 # cumulative IFQ occupancy
IFQ_fcount                 42361701 # cumulative IFQ full count
ifq_occupancy                3.9997 # avg IFQ occupancy (insn's)
ifq_rate                     2.3605 # avg IFQ dispatch rate (insn/cycle)
ifq_latency                  1.6945 # avg IFQ occupant latency (cycle's)
ifq_full                     0.9999 # fraction of time (cycle's) IFQ was full
RUU_count                 575501296 # cumulative RUU occupancy
RUU_fcount                 15402985 # cumulative RUU full count
ruu_occupancy               13.5845 # avg RUU occupancy (insn's)
ruu_rate                     2.3605 # avg RUU dispatch rate (insn/cycle)
ruu_latency                  5.7550 # avg RUU occupant latency (cycle's)
ruu_full                     0.3636 # fraction of time (cycle's) RUU was full
LSQ_count                 212752735 # cumulative LSQ occupancy
LSQ_fcount                 12527838 # cumulative LSQ full count
lsq_occupancy                5.0219 # avg LSQ occupancy (insn's)
lsq_rate                     2.3605 # avg LSQ dispatch rate (insn/cycle)
lsq_latency                  2.1275 # avg LSQ occupant latency (cycle's)
lsq_full                     0.2957 # fraction of time (cycle's) LSQ was full
sim_slip                  928098947 # total number of slip cycles
avg_sim_slip                 9.2810 # the average slip between issue and retirement
il1.accesses              110902450 # total number of accesses
il1.hits                  110902334 # total number of hits
il1.misses                      116 # total number of misses
il1.replacements                  0 # total number of replacements
il1.writebacks                    0 # total number of writebacks
il1.invalidations                 0 # total number of invalidations
il1.miss_rate                0.0000 # miss rate (i.e., misses/ref)
il1.repl_rate                0.0000 # replacement rate (i.e., repls/ref)
il1.wb_rate                  0.0000 # writeback rate (i.e., wrbks/ref)
il1.inv_rate                 0.0000 # invalidation rate (i.e., invs/ref)
dl1.accesses               39844832 # total number of accesses
dl1.hits                   38716655 # total number of hits
dl1.misses                  1128177 # total number of misses
dl1.replacements            1127921 # total number of replacements
dl1.writebacks              1014225 # total number of writebacks
dl1.invalidations                 0 # total number of invalidations
dl1.miss_rate                0.0283 # miss rate (i.e., misses/ref)
dl1.repl_rate                0.0283 # replacement rate (i.e., repls/ref)
dl1.wb_rate                  0.0255 # writeback rate (i.e., wrbks/ref)
dl1.inv_rate                 0.0000 # invalidation rate (i.e., invs/ref)
dl2.accesses                2142518 # total number of accesses
dl2.hits                    1114258 # total number of hits
dl2.misses                  1028260 # total number of misses
dl2.replacements            1026212 # total number of replacements
dl2.writebacks               998129 # total number of writebacks
dl2.invalidations                 0 # total number of invalidations
dl2.miss_rate                0.4799 # miss rate (i.e., misses/ref)
dl2.repl_rate                0.4790 # replacement rate (i.e., repls/ref)
dl2.wb_rate                  0.4659 # writeback rate (i.e., wrbks/ref)
dl2.inv_rate                 0.0000 # invalidation rate (i.e., invs/ref)
itlb.accesses             110902450 # total number of accesses
itlb.hits                 110902439 # total number of hits
itlb.misses                      11 # total number of misses
itlb.replacements                 0 # total number of replacements
itlb.writebacks                   0 # total number of writebacks
itlb.invalidations                0 # total number of invalidations
itlb.miss_rate               0.0000 # miss rate (i.e., misses/ref)
itlb.repl_rate               0.0000 # replacement rate (i.e., repls/ref)
itlb.wb_rate                 0.0000 # writeback rate (i.e., wrbks/ref)
itlb.inv_rate                0.0000 # invalidation rate (i.e., invs/ref)
dtlb.accesses              39844984 # total number of accesses
dtlb.hits                  39829529 # total number of hits
dtlb.misses                   15455 # total number of misses
dtlb.replacements             15327 # total number of replacements
dtlb.writebacks                   0 # total number of writebacks
dtlb.invalidations                0 # total number of invalidations
dtlb.miss_rate               0.0004 # miss rate (i.e., misses/ref)
dtlb.repl_rate               0.0004 # replacement rate (i.e., repls/ref)
dtlb.wb_rate                 0.0000 # writeback rate (i.e., wrbks/ref)
dtlb.inv_rate                0.0000 # invalidation rate (i.e., invs/ref)
rename_power           17706965.7344 # total power usage of rename unit
bpred_power            120726103.5191 # total power usage of bpred unit
window_power           93385242.6641 # total power usage of instruction window
lsq_power              270677626.6142 # total power usage of load/store queue
regfile_power          151346566.1327 # total power usage of arch. regfile
icache_power           128473502.8246 # total power usage of icache
dcache_power           1091092631.3783 # total power usage of dcache
dcache2_power          131456555.8533 # total power usage of dcache2
alu_power              1604872913.4174 # total power usage of alu
falu_power             1210023228.0730 # total power usage of falu
resultbus_power        177117101.2204 # total power usage of resultbus
clock_power            1654172433.6208 # total power usage of clock
avg_rename_power             0.4180 # avg power usage of rename unit
avg_bpred_power              2.8497 # avg power usage of bpred unit
avg_window_power             2.2043 # avg power usage of instruction window
avg_lsq_power                6.3892 # avg power usage of lsq
avg_regfile_power            3.5725 # avg power usage of arch. regfile
avg_icache_power             3.0326 # avg power usage of icache
avg_dcache_power            25.7548 # avg power usage of dcache
avg_dcache2_power            3.1030 # avg power usage of dcache2
avg_alu_power               37.8824 # avg power usage of alu
avg_falu_power              28.5621 # avg power usage of falu
avg_resultbus_power          4.1808 # avg power usage of resultbus
avg_clock_power             39.0460 # avg power usage of clock
fetch_stage_power      249199606.3437 # total power usage of fetch stage
dispatch_stage_power   17706965.7344 # total power usage of dispatch stage
issue_stage_power      3368602071.1476 # total power usage of issue stage
avg_fetch_power              5.8823 # average power of fetch unit per cycle
avg_dispatch_power           0.4180 # average power of dispatch unit per cycle
avg_issue_power             79.5144 # average power of issue unit per cycle
total_power            5441027642.9792 # total power per cycle
avg_total_power_cycle      128.4332 # average total power per cycle
avg_total_power_cycle_nofp_nod2      96.7681 # average total power per cycle
avg_total_power_insn        54.4103 # average total power per insn
avg_total_power_insn_nofp_nod2      40.9955 # average total power per insn
rename_power_cc1       15960530.8037 # total power usage of rename unit_cc1
bpred_power_cc1              0.0000 # total power usage of bpred unit_cc1
window_power_cc1       93605552.8873 # total power usage of instruction window_cc1
lsq_power_cc1          93514765.2686 # total power usage of lsq_cc1
regfile_power_cc1      116244038.0810 # total power usage of arch. regfile_cc1
icache_power_cc1       115802420.2538 # total power usage of icache_cc1
dcache_power_cc1       543412377.2287 # total power usage of dcache_cc1
dcache2_power_cc1      3487162.5322 # total power usage of dcache2_cc1
alu_power_cc1          381163179.9954 # total power usage of alu_cc1
resultbus_power_cc1    161730050.8520 # total power usage of resultbus_cc1
clock_power_cc1        801573698.8979 # total power usage of clock_cc1
avg_rename_power_cc1         0.3767 # avg power usage of rename unit_cc1
avg_bpred_power_cc1          0.0000 # avg power usage of bpred unit_cc1
avg_window_power_cc1         2.2095 # avg power usage of instruction window_cc1
avg_lsq_power_cc1            2.2074 # avg power usage of lsq_cc1
avg_regfile_power_cc1        2.7439 # avg power usage of arch. regfile_cc1
avg_icache_power_cc1         2.7335 # avg power usage of icache_cc1
avg_dcache_power_cc1        12.8270 # avg power usage of dcache_cc1
avg_dcache2_power_cc1        0.0823 # avg power usage of dcache2_cc1
avg_alu_power_cc1            8.9972 # avg power usage of alu_cc1
avg_resultbus_power_cc1       3.8176 # avg power usage of resultbus_cc1
avg_clock_power_cc1         18.9208 # avg power usage of clock_cc1
fetch_stage_power_cc1  115802420.2538 # total power usage of fetch stage_cc1
dispatch_stage_power_cc1 15960530.8037 # total power usage of dispatch stage_cc1
issue_stage_power_cc1  1276913088.7642 # total power usage of issue stage_cc1
avg_fetch_power_cc1          2.7335 # average power of fetch unit per cycle_cc1
avg_dispatch_power_cc1       0.3767 # average power of dispatch unit per cycle_cc1
avg_issue_power_cc1         30.1410 # average power of issue unit per cycle_cc1
total_power_cycle_cc1  2326493776.8005 # total power per cycle_cc1
avg_total_power_cycle_cc1      54.9159 # average total power per cycle_cc1
avg_total_power_insn_cc1      23.2649 # average total power per insn_cc1
rename_power_cc2       10449137.3757 # total power usage of rename unit_cc2
bpred_power_cc2              0.0000 # total power usage of bpred unit_cc2
window_power_cc2       85369041.4452 # total power usage of instruction window_cc2
lsq_power_cc2          14637980.7526 # total power usage of lsq_cc2
regfile_power_cc2      40285103.0456 # total power usage of arch. regfile_cc2
icache_power_cc2       115802420.2538 # total power usage of icache_cc2
dcache_power_cc2       128274375.9015 # total power usage of dcache_cc2
dcache2_power_cc2       831022.9485 # total power usage of dcache2_cc2
alu_power_cc2          115353537.3439 # total power usage of alu_cc2
resultbus_power_cc2    113640844.2261 # total power usage of resultbus_cc2
clock_power_cc2        317615669.4578 # total power usage of clock_cc2
avg_rename_power_cc2         0.2466 # avg power usage of rename unit_cc2
avg_bpred_power_cc2          0.0000 # avg power usage of bpred unit_cc2
avg_window_power_cc2         2.0151 # avg power usage of instruction window_cc2
avg_lsq_power_cc2            0.3455 # avg power usage of instruction lsq_cc2
avg_regfile_power_cc2        0.9509 # avg power usage of arch. regfile_cc2
avg_icache_power_cc2         2.7335 # avg power usage of icache_cc2
avg_dcache_power_cc2         3.0279 # avg power usage of dcache_cc2
avg_dcache2_power_cc2        0.0196 # avg power usage of dcache2_cc2
avg_alu_power_cc2            2.7229 # avg power usage of alu_cc2
avg_resultbus_power_cc2       2.6824 # avg power usage of resultbus_cc2
avg_clock_power_cc2          7.4972 # avg power usage of clock_cc2
fetch_stage_power_cc2  115802420.2538 # total power usage of fetch stage_cc2
dispatch_stage_power_cc2 10449137.3757 # total power usage of dispatch stage_cc2
issue_stage_power_cc2  458106802.6178 # total power usage of issue stage_cc2
avg_fetch_power_cc2          2.7335 # average power of fetch unit per cycle_cc2
avg_dispatch_power_cc2       0.2466 # average power of dispatch unit per cycle_cc2
avg_issue_power_cc2         10.8134 # average power of issue unit per cycle_cc2
total_power_cycle_cc2  942259132.7507 # total power per cycle_cc2
avg_total_power_cycle_cc2      22.2416 # average total power per cycle_cc2
avg_total_power_insn_cc2       9.4226 # average total power per insn_cc2
rename_power_cc3       10623780.8680 # total power usage of rename unit_cc3
bpred_power_cc3        12072610.3621 # total power usage of bpred unit_cc3
window_power_cc3       85602026.5694 # total power usage of instruction window_cc3
lsq_power_cc3          32190268.4921 # total power usage of lsq_cc3
regfile_power_cc3      42354892.9993 # total power usage of arch. regfile_cc3
icache_power_cc3       117069528.5036 # total power usage of icache_cc3
dcache_power_cc3       183042401.3280 # total power usage of dcache_cc3
dcache2_power_cc3      13627962.2923 # total power usage of dcache2_cc3
alu_power_cc3          237724510.3665 # total power usage of alu_cc3
resultbus_power_cc3    114106927.0253 # total power usage of resultbus_cc3
clock_power_cc3        401677981.4649 # total power usage of clock_cc3
avg_rename_power_cc3         0.2508 # avg power usage of rename unit_cc3
avg_bpred_power_cc3          0.2850 # avg power usage of bpred unit_cc3
avg_window_power_cc3         2.0206 # avg power usage of instruction window_cc3
avg_lsq_power_cc3            0.7598 # avg power usage of instruction lsq_cc3
avg_regfile_power_cc3        0.9998 # avg power usage of arch. regfile_cc3
avg_icache_power_cc3         2.7634 # avg power usage of icache_cc3
avg_dcache_power_cc3         4.3206 # avg power usage of dcache_cc3
avg_dcache2_power_cc3        0.3217 # avg power usage of dcache2_cc3
avg_alu_power_cc3            5.6114 # avg power usage of alu_cc3
avg_resultbus_power_cc3       2.6934 # avg power usage of resultbus_cc3
avg_clock_power_cc3          9.4814 # avg power usage of clock_cc3
fetch_stage_power_cc3  129142138.8657 # total power usage of fetch stage_cc3
dispatch_stage_power_cc3 10623780.8680 # total power usage of dispatch stage_cc3
issue_stage_power_cc3  666294096.0735 # total power usage of issue stage_cc3
avg_fetch_power_cc3          3.0483 # average power of fetch unit per cycle_cc3
avg_dispatch_power_cc3       0.2508 # average power of dispatch unit per cycle_cc3
avg_issue_power_cc3         15.7276 # average power of issue unit per cycle_cc3
total_power_cycle_cc3  1250092890.2714 # total power per cycle_cc3
avg_total_power_cycle_cc3      29.5079 # average total power per cycle_cc3
avg_total_power_insn_cc3      12.5009 # average total power per insn_cc3
total_rename_access       100000002 # total number accesses of rename unit
total_bpred_access                0 # total number accesses of bpred unit
total_window_access       398054433 # total number accesses of instruction window
total_lsq_access           39845137 # total number accesses of load/store queue
total_regfile_access      152113794 # total number accesses of arch. regfile
total_icache_access       110902450 # total number accesses of icache
total_dcache_access        39844832 # total number accesses of dcache
total_dcache2_access        2142518 # total number accesses of dcache2
total_alu_access           99013138 # total number accesses of alu
total_resultbus_access    115975538 # total number accesses of resultbus
avg_rename_access            2.3605 # avg number accesses of rename unit
avg_bpred_access             0.0000 # avg number accesses of bpred unit
avg_window_access            9.3959 # avg number accesses of instruction window
avg_lsq_access               0.9405 # avg number accesses of lsq
avg_regfile_access           3.5906 # avg number accesses of arch. regfile
avg_icache_access            2.6178 # avg number accesses of icache
avg_dcache_access            0.9405 # avg number accesses of dcache
avg_dcache2_access           0.0506 # avg number accesses of dcache2
avg_alu_access               2.3372 # avg number accesses of alu
avg_resultbus_access         2.7376 # avg number accesses of resultbus
max_rename_access                 4 # max number accesses of rename unit
max_bpred_access                  0 # max number accesses of bpred unit
max_window_access                17 # max number accesses of instruction window
max_lsq_access                    4 # max number accesses of load/store queue
max_regfile_access               10 # max number accesses of arch. regfile
max_icache_access                 4 # max number accesses of icache
max_dcache_access                 5 # max number accesses of dcache
max_dcache2_access                6 # max number accesses of dcache2
max_alu_access                    4 # max number accesses of alu
max_resultbus_access              7 # max number accesses of resultbus
max_cycle_power_cc1         76.3110 # maximum cycle power usage of cc1
max_cycle_power_cc2         37.2735 # maximum cycle power usage of cc2
max_cycle_power_cc3         43.1295 # maximum cycle power usage of cc3
sim_invalid_addrs                 0 # total non-speculative bogus addresses seen (debug var)
ld_text_base           0x0120000000 # program text (code) segment base
ld_text_size                 212992 # program text (code) size in bytes
ld_data_base           0x0140000000 # program initialized data segment base
ld_data_size                 402416 # program init'ed `.data' and uninit'ed `.bss' size in bytes
ld_stack_base          0x011ff9b000 # program stack segment base (highest address in stack)
ld_stack_size                 16384 # program initial stack size
ld_prog_entry          0x012001dc18 # program entry point (initial PC)
ld_environ_base        0x011ff96f90 # program environment base address address
ld_target_big_endian              0 # target executable endian-ness, non-zero if big endian
mem.page_count                23125 # total number of pages allocated
mem.page_mem                185000k # total size of memory pages allocated
mem.ptab_misses               23840 # total first level page table misses
mem.ptab_accesses        1127726280 # total page table accesses
mem.ptab_miss_rate           0.0000 # first level page table miss rate

