sim-outorder: SimpleScalar/Alpha Tool Set version 3.0 of August, 2003.
Copyright (c) 1994-2003 by Todd M. Austin, Ph.D. and SimpleScalar, LLC.
All Rights Reserved. This version of SimpleScalar is licensed for academic
non-commercial use.  No portion of this work may be used by any commercial
entity, or for any commercial purpose, without the prior written permission
of SimpleScalar, LLC (info@simplescalar.com).


Processor Parameters:
Issue Width: 4
Window Size: 16
Number of Virtual Registers: 32
Number of Physical Registers: 16
Datapath Width: 64
Total Power Consumption: 130.433
Branch Predictor Power Consumption: 2.84969  (2.22%)
 branch target buffer power (W): 2.49493
 local predict power (W): 0.0879711
 global predict power (W): 0.0996078
 chooser power (W): 0.0702439
 RAS power (W): 0.0969383
Rename Logic Power Consumption: 0.417965  (0.325%)
 Instruction Decode Power (W): 0.0159915
 RAT decode_power (W): 0.113514
 RAT wordline_power (W): 0.0307815
 RAT bitline_power (W): 0.246771
 DCL Comparators (W): 0.0109075
Instruction Window Power Consumption: 2.20432  (1.72%)
 tagdrive (W): 0.0943488
 tagmatch (W): 0.033695
 Selection Logic (W): 0.0134217
 decode_power (W): 0.0532503
 wordline_power (W): 0.0844643
 bitline_power (W): 1.92514
Load/Store Queue Power Consumption: 6.38923  (4.97%)
 tagdrive (W): 2.22773
 tagmatch (W): 0.482855
 decode_power (W): 0.0319831
 wordline_power (W): 0.139808
 bitline_power (W): 3.50685
Arch. Register File Power Consumption: 3.57247  (2.78%)
 decode_power (W): 0.113514
 wordline_power (W): 0.0844643
 bitline_power (W): 3.37449
Result Bus Power Consumption: 4.18077  (3.26%)
Total Clock Power: 39.046  (30.4%)
Int ALU Power: 9.32026  (7.26%)
FP ALU Power: 28.5621  (22.2%)
Instruction Cache Power Consumption: 2.76773  (2.15%)
 decode_power (W): 0.151353
 wordline_power (W): 0.180479
 bitline_power (W): 1.42251
 senseamp_power (W): 0.768
 tagarray_power (W): 0.245382
Itlb_power (W): 0.264834 (0.206%)
Data Cache Power Consumption: 22.1418  (17.2%)
 decode_power (W): 1.21082
 wordline_power (W): 1.44383
 bitline_power (W): 11.3801
 senseamp_power (W): 6.144
 tagarray_power (W): 1.96306
Dtlb_power (W): 3.61295 (2.81%)
Level 2 Cache Power Consumption: 3.10298 (2.42%)
 decode_power (W): 0.19487
 wordline_power (W): 0.0430878
 bitline_power (W): 1.77274
 senseamp_power (W): 0.192
 tagarray_power (W): 0.900275
sim: loading EIO file: ../benchmarks/171.swim.spec_ref.eio.gz
sim: command line: ./sim-outorder -config ../configs/current.config ../benchmarks/171.swim.spec_ref.eio.gz 

sim: simulation started @ Sun Nov 22 21:53:17 2015, options follow:

sim-outorder: This simulator implements a very detailed out-of-order issue
superscalar processor with a two-level memory system and speculative
execution support.  This simulator is a performance simulator, tracking the
latency of all pipeline operations.

# -config                     # load configuration from a file
# -dumpconfig                 # dump configuration to a file
# -h                    false # print help message    
# -v                    false # verbose operation     
# -d                    false # enable debug message  
# -i                    false # start in Dlite debugger
-seed                       1 # random number generator seed (0 for timer seed)
# -q                    false # initialize and terminate immediately
# -chkpt               <null> # restore EIO trace execution from <fname>
# -redir:sim     ../results/max_num_fus/171.swim.spec_ref.eio.gz.out # redirect simulator output to file (non-interactive only)
# -redir:prog       /dev/null # redirect simulated program output to file
-nice                       0 # simulator scheduling priority
-freq            600000000.0000 # frequency             
-max:inst           100000000 # maximum number of inst's to execute
-fastfwd                    0 # number of insts skipped before timing starts
# -ptrace              <null> # generate pipetrace, i.e., <fname|stdout|stderr> <range>
-fetch:ifqsize              4 # instruction fetch queue size (in insts)
-fetch:mplat                3 # extra branch mis-prediction latency
-fetch:speed                1 # speed of front-end of machine relative to execution core
-bpred                perfect # branch predictor type {nottaken|taken|perfect|bimod|2lev|comb}
-bpred:bimod     2048 # bimodal predictor config (<table size>)
-bpred:2lev      1 1024 8 0 # 2-level predictor config (<l1size> <l2size> <hist_size> <xor>)
-bpred:comb      1024 # combining predictor config (<meta_table_size>)
-bpred:ras                  8 # return address stack size (0 for no return stack)
-bpred:btb       512 4 # BTB config (<num_sets> <associativity>)
# -bpred:spec_update       <null> # speculative predictors update in {ID|WB} (default non-spec)
-decode:width               4 # instruction decode B/W (insts/cycle)
-issue:width                4 # instruction issue B/W (insts/cycle)
-issue:inorder          false # run pipeline with in-order issue
-issue:wrongpath         true # issue instructions down wrong execution paths
-commit:width               4 # instruction commit B/W (insts/cycle)
-ruu:size                  16 # register update unit (RUU) size
-lsq:size                   8 # load/store queue (LSQ) size
-cache:dl1       dl1:32:64:8:f # l1 data cache config, i.e., {<config>|none}
-cache:dl1lat               1 # l1 data cache hit latency (in cycles)
-cache:dl2       dl2:256:64:8:f # l2 data cache config, i.e., {<config>|none}
-cache:dl2lat               2 # l2 data cache hit latency (in cycles)
-cache:il1       il1:32:64:8:f # l1 inst cache config, i.e., {<config>|dl1|dl2|none}
-cache:il1lat               1 # l1 instruction cache hit latency (in cycles)
-cache:il2                dl2 # l2 instruction cache config, i.e., {<config>|dl2|none}
-cache:il2lat               2 # l2 instruction cache hit latency (in cycles)
-cache:flush            false # flush caches on system calls
-cache:icompress        false # convert 64-bit inst addresses to 32-bit inst equivalents
-mem:lat         18 1 # memory access latency (<first_chunk> <inter_chunk>)
-mem:width                  8 # memory access bus width (in bytes)
-tlb:itlb        itlb:16:4096:4:l # instruction TLB config, i.e., {<config>|none}
-tlb:dtlb        dtlb:32:4096:4:l # data TLB config, i.e., {<config>|none}
-tlb:lat                   30 # inst/data TLB miss latency (in cycles)
-res:ialu                   8 # total number of integer ALU's available
-res:imult                  8 # total number of integer multiplier/dividers available
-res:memport                8 # total number of memory system ports available (to CPU)
-res:fpalu                  8 # total number of floating point ALU's available
-res:fpmult                 8 # total number of floating point multiplier/dividers available
# -pcstat              <null> # profile stat(s) against text addr's (mult uses ok)
-bugcompat              false # operate in backward-compatible bugs mode (for testing only)

  Pipetrace range arguments are formatted as follows:

    {{@|#}<start>}:{{@|#|+}<end>}

  Both ends of the range are optional, if neither are specified, the entire
  execution is traced.  Ranges that start with a `@' designate an address
  range to be traced, those that start with an `#' designate a cycle count
  range.  All other range values represent an instruction count range.  The
  second argument, if specified with a `+', indicates a value relative
  to the first argument, e.g., 1000:+100 == 1000:1100.  Program symbols may
  be used in all contexts.

    Examples:   -ptrace FOO.trc #0:#1000
                -ptrace BAR.trc @2000:
                -ptrace BLAH.trc :1500
                -ptrace UXXE.trc :
                -ptrace FOOBAR.trc @main:+278

  Branch predictor configuration examples for 2-level predictor:
    Configurations:   N, M, W, X
      N   # entries in first level (# of shift register(s))
      W   width of shift register(s)
      M   # entries in 2nd level (# of counters, or other FSM)
      X   (yes-1/no-0) xor history and address for 2nd level index
    Sample predictors:
      GAg     : 1, W, 2^W, 0
      GAp     : 1, W, M (M > 2^W), 0
      PAg     : N, W, 2^W, 0
      PAp     : N, W, M (M == 2^(N+W)), 0
      gshare  : 1, W, 2^W, 1
  Predictor `comb' combines a bimodal and a 2-level predictor.

  The cache config parameter <config> has the following format:

    <name>:<nsets>:<bsize>:<assoc>:<repl>

    <name>   - name of the cache being defined
    <nsets>  - number of sets in the cache
    <bsize>  - block size of the cache
    <assoc>  - associativity of the cache
    <repl>   - block replacement strategy, 'l'-LRU, 'f'-FIFO, 'r'-random

    Examples:   -cache:dl1 dl1:4096:32:1:l
                -dtlb dtlb:128:4096:32:r

  Cache levels can be unified by pointing a level of the instruction cache
  hierarchy at the data cache hiearchy using the "dl1" and "dl2" cache
  configuration arguments.  Most sensible combinations are supported, e.g.,

    A unified l2 cache (il2 is pointed at dl2):
      -cache:il1 il1:128:64:1:l -cache:il2 dl2
      -cache:dl1 dl1:256:32:1:l -cache:dl2 ul2:1024:64:2:l

    Or, a fully unified cache hierarchy (il1 pointed at dl1):
      -cache:il1 dl1
      -cache:dl1 ul1:256:32:1:l -cache:dl2 ul2:1024:64:2:l



sim: ** starting performance simulation **

sim: ** simulation statistics **
sim_num_insn              100000001 # total number of instructions committed
sim_num_refs               34465203 # total number of loads and stores committed
sim_num_loads              27296927 # total number of loads committed
sim_num_stores         7168276.0000 # total number of stores committed
sim_num_branches            2149555 # total number of branches committed
sim_elapsed_time                109 # total simulation time in seconds
sim_inst_rate           917431.2018 # simulation speed (in insts/sec)
sim_total_insn            100000001 # total number of instructions executed
sim_total_refs             34465203 # total number of loads and stores executed
sim_total_loads            27296927 # total number of loads executed
sim_total_stores       7168276.0000 # total number of stores executed
sim_total_branches          2149555 # total number of branches executed
sim_cycle                  76826689 # total simulation time in cycles
sim_IPC                      1.3016 # instructions per cycle
sim_CPI                      0.7683 # cycles per instruction
sim_exec_BW                  1.3016 # total instructions (mis-spec + committed) per cycle
sim_IPB                     46.5213 # instruction per branch
IFQ_count                 307204121 # cumulative IFQ occupancy
IFQ_fcount                 76799906 # cumulative IFQ full count
ifq_occupancy                3.9987 # avg IFQ occupancy (insn's)
ifq_rate                     1.3016 # avg IFQ dispatch rate (insn/cycle)
ifq_latency                  3.0720 # avg IFQ occupant latency (cycle's)
ifq_full                     0.9997 # fraction of time (cycle's) IFQ was full
RUU_count                1205072880 # cumulative RUU occupancy
RUU_fcount                 62942438 # cumulative RUU full count
ruu_occupancy               15.6856 # avg RUU occupancy (insn's)
ruu_rate                     1.3016 # avg RUU dispatch rate (insn/cycle)
ruu_latency                 12.0507 # avg RUU occupant latency (cycle's)
ruu_full                     0.8193 # fraction of time (cycle's) RUU was full
LSQ_count                 441234311 # cumulative LSQ occupancy
LSQ_fcount                 12983269 # cumulative LSQ full count
lsq_occupancy                5.7432 # avg LSQ occupancy (insn's)
lsq_rate                     1.3016 # avg LSQ dispatch rate (insn/cycle)
lsq_latency                  4.4123 # avg LSQ occupant latency (cycle's)
lsq_full                     0.1690 # fraction of time (cycle's) LSQ was full
sim_slip                 1780772315 # total number of slip cycles
avg_sim_slip                17.8077 # the average slip between issue and retirement
il1.accesses              100592958 # total number of accesses
il1.hits                  100588907 # total number of hits
il1.misses                     4051 # total number of misses
il1.replacements               3795 # total number of replacements
il1.writebacks                    0 # total number of writebacks
il1.invalidations                 0 # total number of invalidations
il1.miss_rate                0.0000 # miss rate (i.e., misses/ref)
il1.repl_rate                0.0000 # replacement rate (i.e., repls/ref)
il1.wb_rate                  0.0000 # writeback rate (i.e., wrbks/ref)
il1.inv_rate                 0.0000 # invalidation rate (i.e., invs/ref)
dl1.accesses               34463005 # total number of accesses
dl1.hits                   31521736 # total number of hits
dl1.misses                  2941269 # total number of misses
dl1.replacements            2941013 # total number of replacements
dl1.writebacks               862411 # total number of writebacks
dl1.invalidations                 0 # total number of invalidations
dl1.miss_rate                0.0853 # miss rate (i.e., misses/ref)
dl1.repl_rate                0.0853 # replacement rate (i.e., repls/ref)
dl1.wb_rate                  0.0250 # writeback rate (i.e., wrbks/ref)
dl1.inv_rate                 0.0000 # invalidation rate (i.e., invs/ref)
dl2.accesses                3807731 # total number of accesses
dl2.hits                     871385 # total number of hits
dl2.misses                  2936346 # total number of misses
dl2.replacements            2934298 # total number of replacements
dl2.writebacks               858420 # total number of writebacks
dl2.invalidations                 0 # total number of invalidations
dl2.miss_rate                0.7712 # miss rate (i.e., misses/ref)
dl2.repl_rate                0.7706 # replacement rate (i.e., repls/ref)
dl2.wb_rate                  0.2254 # writeback rate (i.e., wrbks/ref)
dl2.inv_rate                 0.0000 # invalidation rate (i.e., invs/ref)
itlb.accesses             100592958 # total number of accesses
itlb.hits                 100592927 # total number of hits
itlb.misses                      31 # total number of misses
itlb.replacements                 0 # total number of replacements
itlb.writebacks                   0 # total number of writebacks
itlb.invalidations                0 # total number of invalidations
itlb.miss_rate               0.0000 # miss rate (i.e., misses/ref)
itlb.repl_rate               0.0000 # replacement rate (i.e., repls/ref)
itlb.wb_rate                 0.0000 # writeback rate (i.e., wrbks/ref)
itlb.inv_rate                0.0000 # invalidation rate (i.e., invs/ref)
dtlb.accesses              34465200 # total number of accesses
dtlb.hits                  34419024 # total number of hits
dtlb.misses                   46176 # total number of misses
dtlb.replacements             46048 # total number of replacements
dtlb.writebacks                   0 # total number of writebacks
dtlb.invalidations                0 # total number of invalidations
dtlb.miss_rate               0.0013 # miss rate (i.e., misses/ref)
dtlb.repl_rate               0.0013 # replacement rate (i.e., repls/ref)
dtlb.wb_rate                 0.0000 # writeback rate (i.e., wrbks/ref)
dtlb.inv_rate                0.0000 # invalidation rate (i.e., invs/ref)
rename_power           32110904.4562 # total power usage of rename unit
bpred_power            218932166.6585 # total power usage of bpred unit
window_power           169350562.3544 # total power usage of instruction window
lsq_power              490863514.1209 # total power usage of load/store queue
regfile_power          274461203.0891 # total power usage of arch. regfile
icache_power           232981778.9607 # total power usage of icache
dcache_power           1978654715.3041 # total power usage of dcache
dcache2_power          238391431.2601 # total power usage of dcache2
alu_power              2910375589.4668 # total power usage of alu
falu_power             2194330799.1982 # total power usage of falu
resultbus_power        321195081.8396 # total power usage of resultbus
clock_power            2999778379.2000 # total power usage of clock
avg_rename_power             0.4180 # avg power usage of rename unit
avg_bpred_power              2.8497 # avg power usage of bpred unit
avg_window_power             2.2043 # avg power usage of instruction window
avg_lsq_power                6.3892 # avg power usage of lsq
avg_regfile_power            3.5725 # avg power usage of arch. regfile
avg_icache_power             3.0326 # avg power usage of icache
avg_dcache_power            25.7548 # avg power usage of dcache
avg_dcache2_power            3.1030 # avg power usage of dcache2
avg_alu_power               37.8824 # avg power usage of alu
avg_falu_power              28.5621 # avg power usage of falu
avg_resultbus_power          4.1808 # avg power usage of resultbus
avg_clock_power             39.0460 # avg power usage of clock
fetch_stage_power      451913945.6191 # total power usage of fetch stage
dispatch_stage_power   32110904.4562 # total power usage of dispatch stage
issue_stage_power      6108830894.3460 # total power usage of issue stage
avg_fetch_power              5.8823 # average power of fetch unit per cycle
avg_dispatch_power           0.4180 # average power of dispatch unit per cycle
avg_issue_power             79.5144 # average power of issue unit per cycle
total_power            9867095326.7104 # total power per cycle
avg_total_power_cycle      128.4332 # average total power per cycle
avg_total_power_cycle_nofp_nod2      96.7681 # average total power per cycle
avg_total_power_insn        98.6710 # average total power per insn
avg_total_power_insn_nofp_nod2      74.3437 # average total power per insn
rename_power_cc1       12524893.7922 # total power usage of rename unit_cc1
bpred_power_cc1              0.0000 # total power usage of bpred unit_cc1
window_power_cc1       102895153.9372 # total power usage of instruction window_cc1
lsq_power_cc1          69811665.3065 # total power usage of lsq_cc1
regfile_power_cc1      93851553.5626 # total power usage of arch. regfile_cc1
icache_power_cc1       90880795.7945 # total power usage of icache_cc1
dcache_power_cc1       552223861.1890 # total power usage of dcache_cc1
dcache2_power_cc1      8378387.9209 # total power usage of dcache2_cc1
alu_power_cc1          1134425602.7446 # total power usage of alu_cc1
resultbus_power_cc1    166312829.9558 # total power usage of resultbus_cc1
clock_power_cc1        1103094558.1345 # total power usage of clock_cc1
avg_rename_power_cc1         0.1630 # avg power usage of rename unit_cc1
avg_bpred_power_cc1          0.0000 # avg power usage of bpred unit_cc1
avg_window_power_cc1         1.3393 # avg power usage of instruction window_cc1
avg_lsq_power_cc1            0.9087 # avg power usage of lsq_cc1
avg_regfile_power_cc1        1.2216 # avg power usage of arch. regfile_cc1
avg_icache_power_cc1         1.1829 # avg power usage of icache_cc1
avg_dcache_power_cc1         7.1879 # avg power usage of dcache_cc1
avg_dcache2_power_cc1        0.1091 # avg power usage of dcache2_cc1
avg_alu_power_cc1           14.7660 # avg power usage of alu_cc1
avg_resultbus_power_cc1       2.1648 # avg power usage of resultbus_cc1
avg_clock_power_cc1         14.3582 # avg power usage of clock_cc1
fetch_stage_power_cc1  90880795.7945 # total power usage of fetch stage_cc1
dispatch_stage_power_cc1 12524893.7922 # total power usage of dispatch stage_cc1
issue_stage_power_cc1  2034047501.0541 # total power usage of issue stage_cc1
avg_fetch_power_cc1          1.1829 # average power of fetch unit per cycle_cc1
avg_dispatch_power_cc1       0.1630 # average power of dispatch unit per cycle_cc1
avg_issue_power_cc1         26.4758 # average power of issue unit per cycle_cc1
total_power_cycle_cc1  3334399302.3378 # total power per cycle_cc1
avg_total_power_cycle_cc1      43.4016 # average total power per cycle_cc1
avg_total_power_insn_cc1      33.3440 # average total power per insn_cc1
rename_power_cc2       10449137.2714 # total power usage of rename unit_cc2
bpred_power_cc2              0.0000 # total power usage of bpred unit_cc2
window_power_cc2       87303900.3385 # total power usage of instruction window_cc2
lsq_power_cc2          12176249.3392 # total power usage of lsq_cc2
regfile_power_cc2      55399669.1890 # total power usage of arch. regfile_cc2
icache_power_cc2       90880795.7945 # total power usage of icache_cc2
dcache_power_cc2       110948402.4921 # total power usage of dcache_cc2
dcache2_power_cc2      1476912.6059 # total power usage of dcache2_cc2
alu_power_cc2          219165744.7478 # total power usage of alu_cc2
resultbus_power_cc2    122628028.1017 # total power usage of resultbus_cc2
clock_power_cc2        355222489.7062 # total power usage of clock_cc2
avg_rename_power_cc2         0.1360 # avg power usage of rename unit_cc2
avg_bpred_power_cc2          0.0000 # avg power usage of bpred unit_cc2
avg_window_power_cc2         1.1364 # avg power usage of instruction window_cc2
avg_lsq_power_cc2            0.1585 # avg power usage of instruction lsq_cc2
avg_regfile_power_cc2        0.7211 # avg power usage of arch. regfile_cc2
avg_icache_power_cc2         1.1829 # avg power usage of icache_cc2
avg_dcache_power_cc2         1.4441 # avg power usage of dcache_cc2
avg_dcache2_power_cc2        0.0192 # avg power usage of dcache2_cc2
avg_alu_power_cc2            2.8527 # avg power usage of alu_cc2
avg_resultbus_power_cc2       1.5962 # avg power usage of resultbus_cc2
avg_clock_power_cc2          4.6237 # avg power usage of clock_cc2
fetch_stage_power_cc2  90880795.7945 # total power usage of fetch stage_cc2
dispatch_stage_power_cc2 10449137.2714 # total power usage of dispatch stage_cc2
issue_stage_power_cc2  553699237.6252 # total power usage of issue stage_cc2
avg_fetch_power_cc2          1.1829 # average power of fetch unit per cycle_cc2
avg_dispatch_power_cc2       0.1360 # average power of dispatch unit per cycle_cc2
avg_issue_power_cc2          7.2071 # average power of issue unit per cycle_cc2
total_power_cycle_cc2  1065651329.5864 # total power per cycle_cc2
avg_total_power_cycle_cc2      13.8708 # average total power per cycle_cc2
avg_total_power_insn_cc2      10.6565 # average total power per insn_cc2
rename_power_cc3       12407738.3254 # total power usage of rename unit_cc3
bpred_power_cc3        21893216.6811 # total power usage of bpred unit_cc3
window_power_cc3       94666506.1600 # total power usage of instruction window_cc3
lsq_power_cc3          54032677.7738 # total power usage of lsq_cc3
regfile_power_cc3      72084096.7048 # total power usage of arch. regfile_cc3
icache_power_cc3       105090894.0221 # total power usage of icache_cc3
dcache_power_cc3       253591487.9337 # total power usage of dcache_cc3
dcache2_power_cc3      24478216.9202 # total power usage of dcache2_cc3
alu_power_cc3          396760742.6133 # total power usage of alu_cc3
resultbus_power_cc3    137970213.3145 # total power usage of resultbus_cc3
clock_power_cc3        544305083.9474 # total power usage of clock_cc3
avg_rename_power_cc3         0.1615 # avg power usage of rename unit_cc3
avg_bpred_power_cc3          0.2850 # avg power usage of bpred unit_cc3
avg_window_power_cc3         1.2322 # avg power usage of instruction window_cc3
avg_lsq_power_cc3            0.7033 # avg power usage of instruction lsq_cc3
avg_regfile_power_cc3        0.9383 # avg power usage of arch. regfile_cc3
avg_icache_power_cc3         1.3679 # avg power usage of icache_cc3
avg_dcache_power_cc3         3.3008 # avg power usage of dcache_cc3
avg_dcache2_power_cc3        0.3186 # avg power usage of dcache2_cc3
avg_alu_power_cc3            5.1644 # avg power usage of alu_cc3
avg_resultbus_power_cc3       1.7959 # avg power usage of resultbus_cc3
avg_clock_power_cc3          7.0848 # avg power usage of clock_cc3
fetch_stage_power_cc3  126984110.7032 # total power usage of fetch stage_cc3
dispatch_stage_power_cc3 12407738.3254 # total power usage of dispatch stage_cc3
issue_stage_power_cc3  961499844.7156 # total power usage of issue stage_cc3
avg_fetch_power_cc3          1.6529 # average power of fetch unit per cycle_cc3
avg_dispatch_power_cc3       0.1615 # average power of dispatch unit per cycle_cc3
avg_issue_power_cc3         12.5152 # average power of issue unit per cycle_cc3
total_power_cycle_cc3  1717280874.3964 # total power per cycle_cc3
avg_total_power_cycle_cc3      22.3527 # average total power per cycle_cc3
avg_total_power_insn_cc3      17.1728 # average total power per insn_cc3
total_rename_access       100000001 # total number accesses of rename unit
total_bpred_access                0 # total number accesses of bpred unit
total_window_access       424024198 # total number accesses of instruction window
total_lsq_access           34467395 # total number accesses of load/store queue
total_regfile_access      213627614 # total number accesses of arch. regfile
total_icache_access       100592958 # total number accesses of icache
total_dcache_access        34463005 # total number accesses of dcache
total_dcache2_access        3807731 # total number accesses of dcache2
total_alu_access           99381937 # total number accesses of alu
total_resultbus_access    125147359 # total number accesses of resultbus
avg_rename_access            1.3016 # avg number accesses of rename unit
avg_bpred_access             0.0000 # avg number accesses of bpred unit
avg_window_access            5.5192 # avg number accesses of instruction window
avg_lsq_access               0.4486 # avg number accesses of lsq
avg_regfile_access           2.7806 # avg number accesses of arch. regfile
avg_icache_access            1.3093 # avg number accesses of icache
avg_dcache_access            0.4486 # avg number accesses of dcache
avg_dcache2_access           0.0496 # avg number accesses of dcache2
avg_alu_access               1.2936 # avg number accesses of alu
avg_resultbus_access         1.6290 # avg number accesses of resultbus
max_rename_access                 4 # max number accesses of rename unit
max_bpred_access                  0 # max number accesses of bpred unit
max_window_access                18 # max number accesses of instruction window
max_lsq_access                    5 # max number accesses of load/store queue
max_regfile_access               12 # max number accesses of arch. regfile
max_icache_access                 4 # max number accesses of icache
max_dcache_access                 5 # max number accesses of dcache
max_dcache2_access                5 # max number accesses of dcache2
max_alu_access                    4 # max number accesses of alu
max_resultbus_access              8 # max number accesses of resultbus
max_cycle_power_cc1         98.9811 # maximum cycle power usage of cc1
max_cycle_power_cc2         40.0171 # maximum cycle power usage of cc2
max_cycle_power_cc3         44.1875 # maximum cycle power usage of cc3
sim_invalid_addrs                 0 # total non-speculative bogus addresses seen (debug var)
ld_text_base           0x0120000000 # program text (code) segment base
ld_text_size                 819200 # program text (code) size in bytes
ld_data_base           0x0140000000 # program initialized data segment base
ld_data_size              199810704 # program init'ed `.data' and uninit'ed `.bss' size in bytes
ld_stack_base          0x011ff9b000 # program stack segment base (highest address in stack)
ld_stack_size                 16384 # program initial stack size
ld_prog_entry          0x012001a610 # program entry point (initial PC)
ld_environ_base        0x011ff96e70 # program environment base address address
ld_target_big_endian              0 # target executable endian-ness, non-zero if big endian
mem.page_count                24496 # total number of pages allocated
mem.page_mem                195968k # total size of memory pages allocated
mem.ptab_misses               24901 # total first level page table misses
mem.ptab_accesses        1112063840 # total page table accesses
mem.ptab_miss_rate           0.0000 # first level page table miss rate

