sim-outorder: SimpleScalar/Alpha Tool Set version 3.0 of August, 2003.
Copyright (c) 1994-2003 by Todd M. Austin, Ph.D. and SimpleScalar, LLC.
All Rights Reserved. This version of SimpleScalar is licensed for academic
non-commercial use.  No portion of this work may be used by any commercial
entity, or for any commercial purpose, without the prior written permission
of SimpleScalar, LLC (info@simplescalar.com).


Processor Parameters:
Issue Width: 4
Window Size: 16
Number of Virtual Registers: 32
Number of Physical Registers: 16
Datapath Width: 64
Total Power Consumption: 130.433
Branch Predictor Power Consumption: 2.84969  (2.22%)
 branch target buffer power (W): 2.49493
 local predict power (W): 0.0879711
 global predict power (W): 0.0996078
 chooser power (W): 0.0702439
 RAS power (W): 0.0969383
Rename Logic Power Consumption: 0.417965  (0.325%)
 Instruction Decode Power (W): 0.0159915
 RAT decode_power (W): 0.113514
 RAT wordline_power (W): 0.0307815
 RAT bitline_power (W): 0.246771
 DCL Comparators (W): 0.0109075
Instruction Window Power Consumption: 2.20432  (1.72%)
 tagdrive (W): 0.0943488
 tagmatch (W): 0.033695
 Selection Logic (W): 0.0134217
 decode_power (W): 0.0532503
 wordline_power (W): 0.0844643
 bitline_power (W): 1.92514
Load/Store Queue Power Consumption: 6.38923  (4.97%)
 tagdrive (W): 2.22773
 tagmatch (W): 0.482855
 decode_power (W): 0.0319831
 wordline_power (W): 0.139808
 bitline_power (W): 3.50685
Arch. Register File Power Consumption: 3.57247  (2.78%)
 decode_power (W): 0.113514
 wordline_power (W): 0.0844643
 bitline_power (W): 3.37449
Result Bus Power Consumption: 4.18077  (3.26%)
Total Clock Power: 39.046  (30.4%)
Int ALU Power: 9.32026  (7.26%)
FP ALU Power: 28.5621  (22.2%)
Instruction Cache Power Consumption: 2.76773  (2.15%)
 decode_power (W): 0.151353
 wordline_power (W): 0.180479
 bitline_power (W): 1.42251
 senseamp_power (W): 0.768
 tagarray_power (W): 0.245382
Itlb_power (W): 0.264834 (0.206%)
Data Cache Power Consumption: 22.1418  (17.2%)
 decode_power (W): 1.21082
 wordline_power (W): 1.44383
 bitline_power (W): 11.3801
 senseamp_power (W): 6.144
 tagarray_power (W): 1.96306
Dtlb_power (W): 3.61295 (2.81%)
Level 2 Cache Power Consumption: 3.10298 (2.42%)
 decode_power (W): 0.19487
 wordline_power (W): 0.0430878
 bitline_power (W): 1.77274
 senseamp_power (W): 0.192
 tagarray_power (W): 0.900275
sim: loading EIO file: ../benchmarks/172.mgrid.spec_ref.eio.gz
sim: command line: ./sim-outorder -config ../configs/current.config ../benchmarks/172.mgrid.spec_ref.eio.gz 

sim: simulation started @ Sun Nov 22 21:53:04 2015, options follow:

sim-outorder: This simulator implements a very detailed out-of-order issue
superscalar processor with a two-level memory system and speculative
execution support.  This simulator is a performance simulator, tracking the
latency of all pipeline operations.

# -config                     # load configuration from a file
# -dumpconfig                 # dump configuration to a file
# -h                    false # print help message    
# -v                    false # verbose operation     
# -d                    false # enable debug message  
# -i                    false # start in Dlite debugger
-seed                       1 # random number generator seed (0 for timer seed)
# -q                    false # initialize and terminate immediately
# -chkpt               <null> # restore EIO trace execution from <fname>
# -redir:sim     ../results/max_num_fus/172.mgrid.spec_ref.eio.gz.out # redirect simulator output to file (non-interactive only)
# -redir:prog       /dev/null # redirect simulated program output to file
-nice                       0 # simulator scheduling priority
-freq            600000000.0000 # frequency             
-max:inst           100000000 # maximum number of inst's to execute
-fastfwd                    0 # number of insts skipped before timing starts
# -ptrace              <null> # generate pipetrace, i.e., <fname|stdout|stderr> <range>
-fetch:ifqsize              4 # instruction fetch queue size (in insts)
-fetch:mplat                3 # extra branch mis-prediction latency
-fetch:speed                1 # speed of front-end of machine relative to execution core
-bpred                perfect # branch predictor type {nottaken|taken|perfect|bimod|2lev|comb}
-bpred:bimod     2048 # bimodal predictor config (<table size>)
-bpred:2lev      1 1024 8 0 # 2-level predictor config (<l1size> <l2size> <hist_size> <xor>)
-bpred:comb      1024 # combining predictor config (<meta_table_size>)
-bpred:ras                  8 # return address stack size (0 for no return stack)
-bpred:btb       512 4 # BTB config (<num_sets> <associativity>)
# -bpred:spec_update       <null> # speculative predictors update in {ID|WB} (default non-spec)
-decode:width               4 # instruction decode B/W (insts/cycle)
-issue:width                4 # instruction issue B/W (insts/cycle)
-issue:inorder          false # run pipeline with in-order issue
-issue:wrongpath         true # issue instructions down wrong execution paths
-commit:width               4 # instruction commit B/W (insts/cycle)
-ruu:size                  16 # register update unit (RUU) size
-lsq:size                   8 # load/store queue (LSQ) size
-cache:dl1       dl1:32:64:8:f # l1 data cache config, i.e., {<config>|none}
-cache:dl1lat               1 # l1 data cache hit latency (in cycles)
-cache:dl2       dl2:256:64:8:f # l2 data cache config, i.e., {<config>|none}
-cache:dl2lat               2 # l2 data cache hit latency (in cycles)
-cache:il1       il1:32:64:8:f # l1 inst cache config, i.e., {<config>|dl1|dl2|none}
-cache:il1lat               1 # l1 instruction cache hit latency (in cycles)
-cache:il2                dl2 # l2 instruction cache config, i.e., {<config>|dl2|none}
-cache:il2lat               2 # l2 instruction cache hit latency (in cycles)
-cache:flush            false # flush caches on system calls
-cache:icompress        false # convert 64-bit inst addresses to 32-bit inst equivalents
-mem:lat         18 1 # memory access latency (<first_chunk> <inter_chunk>)
-mem:width                  8 # memory access bus width (in bytes)
-tlb:itlb        itlb:16:4096:4:l # instruction TLB config, i.e., {<config>|none}
-tlb:dtlb        dtlb:32:4096:4:l # data TLB config, i.e., {<config>|none}
-tlb:lat                   30 # inst/data TLB miss latency (in cycles)
-res:ialu                   8 # total number of integer ALU's available
-res:imult                  8 # total number of integer multiplier/dividers available
-res:memport                8 # total number of memory system ports available (to CPU)
-res:fpalu                  8 # total number of floating point ALU's available
-res:fpmult                 8 # total number of floating point multiplier/dividers available
# -pcstat              <null> # profile stat(s) against text addr's (mult uses ok)
-bugcompat              false # operate in backward-compatible bugs mode (for testing only)

  Pipetrace range arguments are formatted as follows:

    {{@|#}<start>}:{{@|#|+}<end>}

  Both ends of the range are optional, if neither are specified, the entire
  execution is traced.  Ranges that start with a `@' designate an address
  range to be traced, those that start with an `#' designate a cycle count
  range.  All other range values represent an instruction count range.  The
  second argument, if specified with a `+', indicates a value relative
  to the first argument, e.g., 1000:+100 == 1000:1100.  Program symbols may
  be used in all contexts.

    Examples:   -ptrace FOO.trc #0:#1000
                -ptrace BAR.trc @2000:
                -ptrace BLAH.trc :1500
                -ptrace UXXE.trc :
                -ptrace FOOBAR.trc @main:+278

  Branch predictor configuration examples for 2-level predictor:
    Configurations:   N, M, W, X
      N   # entries in first level (# of shift register(s))
      W   width of shift register(s)
      M   # entries in 2nd level (# of counters, or other FSM)
      X   (yes-1/no-0) xor history and address for 2nd level index
    Sample predictors:
      GAg     : 1, W, 2^W, 0
      GAp     : 1, W, M (M > 2^W), 0
      PAg     : N, W, 2^W, 0
      PAp     : N, W, M (M == 2^(N+W)), 0
      gshare  : 1, W, 2^W, 1
  Predictor `comb' combines a bimodal and a 2-level predictor.

  The cache config parameter <config> has the following format:

    <name>:<nsets>:<bsize>:<assoc>:<repl>

    <name>   - name of the cache being defined
    <nsets>  - number of sets in the cache
    <bsize>  - block size of the cache
    <assoc>  - associativity of the cache
    <repl>   - block replacement strategy, 'l'-LRU, 'f'-FIFO, 'r'-random

    Examples:   -cache:dl1 dl1:4096:32:1:l
                -dtlb dtlb:128:4096:32:r

  Cache levels can be unified by pointing a level of the instruction cache
  hierarchy at the data cache hiearchy using the "dl1" and "dl2" cache
  configuration arguments.  Most sensible combinations are supported, e.g.,

    A unified l2 cache (il2 is pointed at dl2):
      -cache:il1 il1:128:64:1:l -cache:il2 dl2
      -cache:dl1 dl1:256:32:1:l -cache:dl2 ul2:1024:64:2:l

    Or, a fully unified cache hierarchy (il1 pointed at dl1):
      -cache:il1 dl1
      -cache:dl1 ul1:256:32:1:l -cache:dl2 ul2:1024:64:2:l



sim: ** starting performance simulation **

sim: ** simulation statistics **
sim_num_insn              100000002 # total number of instructions committed
sim_num_refs               36272669 # total number of loads and stores committed
sim_num_loads              31712709 # total number of loads committed
sim_num_stores         4559960.0000 # total number of stores committed
sim_num_branches             292900 # total number of branches committed
sim_elapsed_time                102 # total simulation time in seconds
sim_inst_rate           980392.1765 # simulation speed (in insts/sec)
sim_total_insn            100000002 # total number of instructions executed
sim_total_refs             36272669 # total number of loads and stores executed
sim_total_loads            31712709 # total number of loads executed
sim_total_stores       4559960.0000 # total number of stores executed
sim_total_branches           292900 # total number of branches executed
sim_cycle                  49993897 # total simulation time in cycles
sim_IPC                      2.0002 # instructions per cycle
sim_CPI                      0.4999 # cycles per instruction
sim_exec_BW                  2.0002 # total instructions (mis-spec + committed) per cycle
sim_IPB                    341.4135 # instruction per branch
IFQ_count                 199928005 # cumulative IFQ occupancy
IFQ_fcount                 49981800 # cumulative IFQ full count
ifq_occupancy                3.9990 # avg IFQ occupancy (insn's)
ifq_rate                     2.0002 # avg IFQ dispatch rate (insn/cycle)
ifq_latency                  1.9993 # avg IFQ occupant latency (cycle's)
ifq_full                     0.9998 # fraction of time (cycle's) IFQ was full
RUU_count                 742820357 # cumulative RUU occupancy
RUU_fcount                 34410722 # cumulative RUU full count
ruu_occupancy               14.8582 # avg RUU occupancy (insn's)
ruu_rate                     2.0002 # avg RUU dispatch rate (insn/cycle)
ruu_latency                  7.4282 # avg RUU occupant latency (cycle's)
ruu_full                     0.6883 # fraction of time (cycle's) RUU was full
LSQ_count                 295727570 # cumulative LSQ occupancy
LSQ_fcount                 13733041 # cumulative LSQ full count
lsq_occupancy                5.9153 # avg LSQ occupancy (insn's)
lsq_rate                     2.0002 # avg LSQ dispatch rate (insn/cycle)
lsq_latency                  2.9573 # avg LSQ occupant latency (cycle's)
lsq_full                     0.2747 # fraction of time (cycle's) LSQ was full
sim_slip                 1174820487 # total number of slip cycles
avg_sim_slip                11.7482 # the average slip between issue and retirement
il1.accesses              100458763 # total number of accesses
il1.hits                  100458165 # total number of hits
il1.misses                      598 # total number of misses
il1.replacements                342 # total number of replacements
il1.writebacks                    0 # total number of writebacks
il1.invalidations                 0 # total number of invalidations
il1.miss_rate                0.0000 # miss rate (i.e., misses/ref)
il1.repl_rate                0.0000 # replacement rate (i.e., repls/ref)
il1.wb_rate                  0.0000 # writeback rate (i.e., wrbks/ref)
il1.inv_rate                 0.0000 # invalidation rate (i.e., invs/ref)
dl1.accesses               36251378 # total number of accesses
dl1.hits                   34697429 # total number of hits
dl1.misses                  1553949 # total number of misses
dl1.replacements            1553693 # total number of replacements
dl1.writebacks               288485 # total number of writebacks
dl1.invalidations                 0 # total number of invalidations
dl1.miss_rate                0.0429 # miss rate (i.e., misses/ref)
dl1.repl_rate                0.0429 # replacement rate (i.e., repls/ref)
dl1.wb_rate                  0.0080 # writeback rate (i.e., wrbks/ref)
dl1.inv_rate                 0.0000 # invalidation rate (i.e., invs/ref)
dl2.accesses                1843032 # total number of accesses
dl2.hits                     777543 # total number of hits
dl2.misses                  1065489 # total number of misses
dl2.replacements            1063441 # total number of replacements
dl2.writebacks               271061 # total number of writebacks
dl2.invalidations                 0 # total number of invalidations
dl2.miss_rate                0.5781 # miss rate (i.e., misses/ref)
dl2.repl_rate                0.5770 # replacement rate (i.e., repls/ref)
dl2.wb_rate                  0.1471 # writeback rate (i.e., wrbks/ref)
dl2.inv_rate                 0.0000 # invalidation rate (i.e., invs/ref)
itlb.accesses             100458763 # total number of accesses
itlb.hits                 100458735 # total number of hits
itlb.misses                      28 # total number of misses
itlb.replacements                 0 # total number of replacements
itlb.writebacks                   0 # total number of writebacks
itlb.invalidations                0 # total number of invalidations
itlb.miss_rate               0.0000 # miss rate (i.e., misses/ref)
itlb.repl_rate               0.0000 # replacement rate (i.e., repls/ref)
itlb.wb_rate                 0.0000 # writeback rate (i.e., wrbks/ref)
itlb.inv_rate                0.0000 # invalidation rate (i.e., invs/ref)
dtlb.accesses              36272666 # total number of accesses
dtlb.hits                  36251958 # total number of hits
dtlb.misses                   20708 # total number of misses
dtlb.replacements             20580 # total number of replacements
dtlb.writebacks                   0 # total number of writebacks
dtlb.invalidations                0 # total number of invalidations
dtlb.miss_rate               0.0006 # miss rate (i.e., misses/ref)
dtlb.repl_rate               0.0006 # replacement rate (i.e., repls/ref)
dtlb.wb_rate                 0.0000 # writeback rate (i.e., wrbks/ref)
dtlb.inv_rate                0.0000 # invalidation rate (i.e., invs/ref)
rename_power           20895723.4899 # total power usage of rename unit
bpred_power            142467055.8735 # total power usage of bpred unit
window_power           110202517.9237 # total power usage of instruction window
lsq_power              319422589.3627 # total power usage of load/store queue
regfile_power          178601802.4250 # total power usage of arch. regfile
icache_power           151609645.1308 # total power usage of icache
dcache_power           1287581975.9402 # total power usage of dcache
dcache2_power          155129901.0311 # total power usage of dcache2
alu_power              1893886346.7157 # total power usage of alu
falu_power             1427930181.2884 # total power usage of falu
resultbus_power        209013222.6190 # total power usage of resultbus
clock_power            1952063967.1528 # total power usage of clock
avg_rename_power             0.4180 # avg power usage of rename unit
avg_bpred_power              2.8497 # avg power usage of bpred unit
avg_window_power             2.2043 # avg power usage of instruction window
avg_lsq_power                6.3892 # avg power usage of lsq
avg_regfile_power            3.5725 # avg power usage of arch. regfile
avg_icache_power             3.0326 # avg power usage of icache
avg_dcache_power            25.7548 # avg power usage of dcache
avg_dcache2_power            3.1030 # avg power usage of dcache2
avg_alu_power               37.8824 # avg power usage of alu
avg_falu_power              28.5621 # avg power usage of falu
avg_resultbus_power          4.1808 # avg power usage of resultbus
avg_clock_power             39.0460 # avg power usage of clock
fetch_stage_power      294076701.0043 # total power usage of fetch stage
dispatch_stage_power   20895723.4899 # total power usage of dispatch stage
issue_stage_power      3975236553.5924 # total power usage of issue stage
avg_fetch_power              5.8823 # average power of fetch unit per cycle
avg_dispatch_power           0.4180 # average power of dispatch unit per cycle
avg_issue_power             79.5144 # average power of issue unit per cycle
total_power            6420874747.6644 # total power per cycle
avg_total_power_cycle      128.4332 # average total power per cycle
avg_total_power_cycle_nofp_nod2      96.7681 # average total power per cycle
avg_total_power_insn        64.2087 # average total power per insn
avg_total_power_insn_nofp_nod2      48.3781 # average total power per insn
rename_power_cc1       13630892.3288 # total power usage of rename unit_cc1
bpred_power_cc1              0.0000 # total power usage of bpred unit_cc1
window_power_cc1       93636166.4922 # total power usage of instruction window_cc1
lsq_power_cc1          77056340.3639 # total power usage of lsq_cc1
regfile_power_cc1      102020847.3546 # total power usage of arch. regfile_cc1
icache_power_cc1       98900554.3710 # total power usage of icache_cc1
dcache_power_cc1       667639157.2567 # total power usage of dcache_cc1
dcache2_power_cc1      4726727.2812 # total power usage of dcache2_cc1
alu_power_cc1          1169423566.6339 # total power usage of alu_cc1
resultbus_power_cc1    159623335.2640 # total power usage of resultbus_cc1
clock_power_cc1        1106824862.6037 # total power usage of clock_cc1
avg_rename_power_cc1         0.2727 # avg power usage of rename unit_cc1
avg_bpred_power_cc1          0.0000 # avg power usage of bpred unit_cc1
avg_window_power_cc1         1.8730 # avg power usage of instruction window_cc1
avg_lsq_power_cc1            1.5413 # avg power usage of lsq_cc1
avg_regfile_power_cc1        2.0407 # avg power usage of arch. regfile_cc1
avg_icache_power_cc1         1.9783 # avg power usage of icache_cc1
avg_dcache_power_cc1        13.3544 # avg power usage of dcache_cc1
avg_dcache2_power_cc1        0.0945 # avg power usage of dcache2_cc1
avg_alu_power_cc1           23.3913 # avg power usage of alu_cc1
avg_resultbus_power_cc1       3.1929 # avg power usage of resultbus_cc1
avg_clock_power_cc1         22.1392 # avg power usage of clock_cc1
fetch_stage_power_cc1  98900554.3710 # total power usage of fetch stage_cc1
dispatch_stage_power_cc1 13630892.3288 # total power usage of dispatch stage_cc1
issue_stage_power_cc1  2172105293.2920 # total power usage of issue stage_cc1
avg_fetch_power_cc1          1.9783 # average power of fetch unit per cycle_cc1
avg_dispatch_power_cc1       0.2727 # average power of dispatch unit per cycle_cc1
avg_issue_power_cc1         43.4474 # average power of issue unit per cycle_cc1
total_power_cycle_cc1  3493482449.9500 # total power per cycle_cc1
avg_total_power_cycle_cc1      69.8782 # average total power per cycle_cc1
avg_total_power_insn_cc1      34.9348 # average total power per insn_cc1
rename_power_cc2       10449137.3758 # total power usage of rename unit_cc2
bpred_power_cc2              0.0000 # total power usage of bpred unit_cc2
window_power_cc2       86808362.9972 # total power usage of instruction window_cc2
lsq_power_cc2          12621736.1383 # total power usage of lsq_cc2
regfile_power_cc2      54763992.8302 # total power usage of arch. regfile_cc2
icache_power_cc2       98900554.3710 # total power usage of icache_cc2
dcache_power_cc2       116705797.3612 # total power usage of dcache_cc2
dcache2_power_cc2       714860.6858 # total power usage of dcache2_cc2
alu_power_cc2          259162680.4938 # total power usage of alu_cc2
resultbus_power_cc2    128774199.1361 # total power usage of resultbus_cc2
clock_power_cc2        357319747.9413 # total power usage of clock_cc2
avg_rename_power_cc2         0.2090 # avg power usage of rename unit_cc2
avg_bpred_power_cc2          0.0000 # avg power usage of bpred unit_cc2
avg_window_power_cc2         1.7364 # avg power usage of instruction window_cc2
avg_lsq_power_cc2            0.2525 # avg power usage of instruction lsq_cc2
avg_regfile_power_cc2        1.0954 # avg power usage of arch. regfile_cc2
avg_icache_power_cc2         1.9783 # avg power usage of icache_cc2
avg_dcache_power_cc2         2.3344 # avg power usage of dcache_cc2
avg_dcache2_power_cc2        0.0143 # avg power usage of dcache2_cc2
avg_alu_power_cc2            5.1839 # avg power usage of alu_cc2
avg_resultbus_power_cc2       2.5758 # avg power usage of resultbus_cc2
avg_clock_power_cc2          7.1473 # avg power usage of clock_cc2
fetch_stage_power_cc2  98900554.3710 # total power usage of fetch stage_cc2
dispatch_stage_power_cc2 10449137.3758 # total power usage of dispatch stage_cc2
issue_stage_power_cc2  604787636.8124 # total power usage of issue stage_cc2
avg_fetch_power_cc2          1.9783 # average power of fetch unit per cycle_cc2
avg_dispatch_power_cc2       0.2090 # average power of dispatch unit per cycle_cc2
avg_issue_power_cc2         12.0972 # average power of issue unit per cycle_cc2
total_power_cycle_cc2  1126221069.3308 # total power per cycle_cc2
avg_total_power_cycle_cc2      22.5272 # average total power per cycle_cc2
avg_total_power_insn_cc2      11.2622 # average total power per insn_cc2
rename_power_cc3       11175620.4881 # total power usage of rename unit_cc3
bpred_power_cc3        14246705.6060 # total power usage of bpred unit_cc3
window_power_cc3       88967829.3965 # total power usage of instruction window_cc3
lsq_power_cc3          36729306.6684 # total power usage of lsq_cc3
regfile_power_cc3      60810528.6983 # total power usage of arch. regfile_cc3
icache_power_cc3       104171463.4174 # total power usage of icache_cc3
dcache_power_cc3       178700079.2382 # total power usage of dcache_cc3
dcache2_power_cc3      15755178.0748 # total power usage of dcache2_cc3
alu_power_cc3          331608958.2289 # total power usage of alu_cc3
resultbus_power_cc3    133402272.0196 # total power usage of resultbus_cc3
clock_power_cc3        441166096.3373 # total power usage of clock_cc3
avg_rename_power_cc3         0.2235 # avg power usage of rename unit_cc3
avg_bpred_power_cc3          0.2850 # avg power usage of bpred unit_cc3
avg_window_power_cc3         1.7796 # avg power usage of instruction window_cc3
avg_lsq_power_cc3            0.7347 # avg power usage of instruction lsq_cc3
avg_regfile_power_cc3        1.2164 # avg power usage of arch. regfile_cc3
avg_icache_power_cc3         2.0837 # avg power usage of icache_cc3
avg_dcache_power_cc3         3.5744 # avg power usage of dcache_cc3
avg_dcache2_power_cc3        0.3151 # avg power usage of dcache2_cc3
avg_alu_power_cc3            6.6330 # avg power usage of alu_cc3
avg_resultbus_power_cc3       2.6684 # avg power usage of resultbus_cc3
avg_clock_power_cc3          8.8244 # avg power usage of clock_cc3
fetch_stage_power_cc3  118418169.0234 # total power usage of fetch stage_cc3
dispatch_stage_power_cc3 11175620.4881 # total power usage of dispatch stage_cc3
issue_stage_power_cc3  785163623.6264 # total power usage of issue stage_cc3
avg_fetch_power_cc3          2.3687 # average power of fetch unit per cycle_cc3
avg_dispatch_power_cc3       0.2235 # average power of dispatch unit per cycle_cc3
avg_issue_power_cc3         15.7052 # average power of issue unit per cycle_cc3
total_power_cycle_cc3  1416734038.1735 # total power per cycle_cc3
avg_total_power_cycle_cc3      28.3381 # average total power per cycle_cc3
avg_total_power_insn_cc3      14.1673 # average total power per insn_cc3
total_rename_access       100000002 # total number accesses of rename unit
total_bpred_access                0 # total number accesses of bpred unit
total_window_access       414921714 # total number accesses of instruction window
total_lsq_access           36293954 # total number accesses of load/store queue
total_regfile_access      213237646 # total number accesses of arch. regfile
total_icache_access       100458763 # total number accesses of icache
total_dcache_access        36251378 # total number accesses of dcache
total_dcache2_access        1843032 # total number accesses of dcache2
total_alu_access           99951778 # total number accesses of alu
total_resultbus_access    131419800 # total number accesses of resultbus
avg_rename_access            2.0002 # avg number accesses of rename unit
avg_bpred_access             0.0000 # avg number accesses of bpred unit
avg_window_access            8.2994 # avg number accesses of instruction window
avg_lsq_access               0.7260 # avg number accesses of lsq
avg_regfile_access           4.2653 # avg number accesses of arch. regfile
avg_icache_access            2.0094 # avg number accesses of icache
avg_dcache_access            0.7251 # avg number accesses of dcache
avg_dcache2_access           0.0369 # avg number accesses of dcache2
avg_alu_access               1.9993 # avg number accesses of alu
avg_resultbus_access         2.6287 # avg number accesses of resultbus
max_rename_access                 4 # max number accesses of rename unit
max_bpred_access                  0 # max number accesses of bpred unit
max_window_access                18 # max number accesses of instruction window
max_lsq_access                    5 # max number accesses of load/store queue
max_regfile_access               12 # max number accesses of arch. regfile
max_icache_access                 4 # max number accesses of icache
max_dcache_access                 6 # max number accesses of dcache
max_dcache2_access                6 # max number accesses of dcache2
max_alu_access                    4 # max number accesses of alu
max_resultbus_access              8 # max number accesses of resultbus
max_cycle_power_cc1        106.4321 # maximum cycle power usage of cc1
max_cycle_power_cc2         41.3292 # maximum cycle power usage of cc2
max_cycle_power_cc3         44.5800 # maximum cycle power usage of cc3
sim_invalid_addrs                 0 # total non-speculative bogus addresses seen (debug var)
ld_text_base           0x0120000000 # program text (code) segment base
ld_text_size                 802816 # program text (code) size in bytes
ld_data_base           0x0140000000 # program initialized data segment base
ld_data_size               58272512 # program init'ed `.data' and uninit'ed `.bss' size in bytes
ld_stack_base          0x011ff9b000 # program stack segment base (highest address in stack)
ld_stack_size                 16384 # program initial stack size
ld_prog_entry          0x0120015684 # program entry point (initial PC)
ld_environ_base        0x011ff96d00 # program environment base address address
ld_target_big_endian              0 # target executable endian-ness, non-zero if big endian
mem.page_count                 7215 # total number of pages allocated
mem.page_mem                 57720k # total size of memory pages allocated
mem.ptab_misses                9449 # total first level page table misses
mem.ptab_accesses         880353166 # total page table accesses
mem.ptab_miss_rate           0.0000 # first level page table miss rate

