sim-outorder: SimpleScalar/Alpha Tool Set version 3.0 of August, 2003.
Copyright (c) 1994-2003 by Todd M. Austin, Ph.D. and SimpleScalar, LLC.
All Rights Reserved. This version of SimpleScalar is licensed for academic
non-commercial use.  No portion of this work may be used by any commercial
entity, or for any commercial purpose, without the prior written permission
of SimpleScalar, LLC (info@simplescalar.com).


Processor Parameters:
Issue Width: 4
Window Size: 16
Number of Virtual Registers: 32
Number of Physical Registers: 16
Datapath Width: 64
Total Power Consumption: 130.433
Branch Predictor Power Consumption: 2.84969  (2.22%)
 branch target buffer power (W): 2.49493
 local predict power (W): 0.0879711
 global predict power (W): 0.0996078
 chooser power (W): 0.0702439
 RAS power (W): 0.0969383
Rename Logic Power Consumption: 0.417965  (0.325%)
 Instruction Decode Power (W): 0.0159915
 RAT decode_power (W): 0.113514
 RAT wordline_power (W): 0.0307815
 RAT bitline_power (W): 0.246771
 DCL Comparators (W): 0.0109075
Instruction Window Power Consumption: 2.20432  (1.72%)
 tagdrive (W): 0.0943488
 tagmatch (W): 0.033695
 Selection Logic (W): 0.0134217
 decode_power (W): 0.0532503
 wordline_power (W): 0.0844643
 bitline_power (W): 1.92514
Load/Store Queue Power Consumption: 6.38923  (4.97%)
 tagdrive (W): 2.22773
 tagmatch (W): 0.482855
 decode_power (W): 0.0319831
 wordline_power (W): 0.139808
 bitline_power (W): 3.50685
Arch. Register File Power Consumption: 3.57247  (2.78%)
 decode_power (W): 0.113514
 wordline_power (W): 0.0844643
 bitline_power (W): 3.37449
Result Bus Power Consumption: 4.18077  (3.26%)
Total Clock Power: 39.046  (30.4%)
Int ALU Power: 9.32026  (7.26%)
FP ALU Power: 28.5621  (22.2%)
Instruction Cache Power Consumption: 2.76773  (2.15%)
 decode_power (W): 0.151353
 wordline_power (W): 0.180479
 bitline_power (W): 1.42251
 senseamp_power (W): 0.768
 tagarray_power (W): 0.245382
Itlb_power (W): 0.264834 (0.206%)
Data Cache Power Consumption: 22.1418  (17.2%)
 decode_power (W): 1.21082
 wordline_power (W): 1.44383
 bitline_power (W): 11.3801
 senseamp_power (W): 6.144
 tagarray_power (W): 1.96306
Dtlb_power (W): 3.61295 (2.81%)
Level 2 Cache Power Consumption: 3.10298 (2.42%)
 decode_power (W): 0.19487
 wordline_power (W): 0.0430878
 bitline_power (W): 1.77274
 senseamp_power (W): 0.192
 tagarray_power (W): 0.900275
sim: loading EIO file: ../benchmarks/176.gcc.00-scilab-ref.eio.gz
sim: command line: ./sim-outorder -config ../configs/current.config ../benchmarks/176.gcc.00-scilab-ref.eio.gz 

sim: simulation started @ Sun Nov 22 21:53:04 2015, options follow:

sim-outorder: This simulator implements a very detailed out-of-order issue
superscalar processor with a two-level memory system and speculative
execution support.  This simulator is a performance simulator, tracking the
latency of all pipeline operations.

# -config                     # load configuration from a file
# -dumpconfig                 # dump configuration to a file
# -h                    false # print help message    
# -v                    false # verbose operation     
# -d                    false # enable debug message  
# -i                    false # start in Dlite debugger
-seed                       1 # random number generator seed (0 for timer seed)
# -q                    false # initialize and terminate immediately
# -chkpt               <null> # restore EIO trace execution from <fname>
# -redir:sim     ../results/max_num_fus/176.gcc.00-scilab-ref.eio.gz.out # redirect simulator output to file (non-interactive only)
# -redir:prog       /dev/null # redirect simulated program output to file
-nice                       0 # simulator scheduling priority
-freq            600000000.0000 # frequency             
-max:inst           100000000 # maximum number of inst's to execute
-fastfwd                    0 # number of insts skipped before timing starts
# -ptrace              <null> # generate pipetrace, i.e., <fname|stdout|stderr> <range>
-fetch:ifqsize              4 # instruction fetch queue size (in insts)
-fetch:mplat                3 # extra branch mis-prediction latency
-fetch:speed                1 # speed of front-end of machine relative to execution core
-bpred                perfect # branch predictor type {nottaken|taken|perfect|bimod|2lev|comb}
-bpred:bimod     2048 # bimodal predictor config (<table size>)
-bpred:2lev      1 1024 8 0 # 2-level predictor config (<l1size> <l2size> <hist_size> <xor>)
-bpred:comb      1024 # combining predictor config (<meta_table_size>)
-bpred:ras                  8 # return address stack size (0 for no return stack)
-bpred:btb       512 4 # BTB config (<num_sets> <associativity>)
# -bpred:spec_update       <null> # speculative predictors update in {ID|WB} (default non-spec)
-decode:width               4 # instruction decode B/W (insts/cycle)
-issue:width                4 # instruction issue B/W (insts/cycle)
-issue:inorder          false # run pipeline with in-order issue
-issue:wrongpath         true # issue instructions down wrong execution paths
-commit:width               4 # instruction commit B/W (insts/cycle)
-ruu:size                  16 # register update unit (RUU) size
-lsq:size                   8 # load/store queue (LSQ) size
-cache:dl1       dl1:32:64:8:f # l1 data cache config, i.e., {<config>|none}
-cache:dl1lat               1 # l1 data cache hit latency (in cycles)
-cache:dl2       dl2:256:64:8:f # l2 data cache config, i.e., {<config>|none}
-cache:dl2lat               2 # l2 data cache hit latency (in cycles)
-cache:il1       il1:32:64:8:f # l1 inst cache config, i.e., {<config>|dl1|dl2|none}
-cache:il1lat               1 # l1 instruction cache hit latency (in cycles)
-cache:il2                dl2 # l2 instruction cache config, i.e., {<config>|dl2|none}
-cache:il2lat               2 # l2 instruction cache hit latency (in cycles)
-cache:flush            false # flush caches on system calls
-cache:icompress        false # convert 64-bit inst addresses to 32-bit inst equivalents
-mem:lat         18 1 # memory access latency (<first_chunk> <inter_chunk>)
-mem:width                  8 # memory access bus width (in bytes)
-tlb:itlb        itlb:16:4096:4:l # instruction TLB config, i.e., {<config>|none}
-tlb:dtlb        dtlb:32:4096:4:l # data TLB config, i.e., {<config>|none}
-tlb:lat                   30 # inst/data TLB miss latency (in cycles)
-res:ialu                   8 # total number of integer ALU's available
-res:imult                  8 # total number of integer multiplier/dividers available
-res:memport                8 # total number of memory system ports available (to CPU)
-res:fpalu                  8 # total number of floating point ALU's available
-res:fpmult                 8 # total number of floating point multiplier/dividers available
# -pcstat              <null> # profile stat(s) against text addr's (mult uses ok)
-bugcompat              false # operate in backward-compatible bugs mode (for testing only)

  Pipetrace range arguments are formatted as follows:

    {{@|#}<start>}:{{@|#|+}<end>}

  Both ends of the range are optional, if neither are specified, the entire
  execution is traced.  Ranges that start with a `@' designate an address
  range to be traced, those that start with an `#' designate a cycle count
  range.  All other range values represent an instruction count range.  The
  second argument, if specified with a `+', indicates a value relative
  to the first argument, e.g., 1000:+100 == 1000:1100.  Program symbols may
  be used in all contexts.

    Examples:   -ptrace FOO.trc #0:#1000
                -ptrace BAR.trc @2000:
                -ptrace BLAH.trc :1500
                -ptrace UXXE.trc :
                -ptrace FOOBAR.trc @main:+278

  Branch predictor configuration examples for 2-level predictor:
    Configurations:   N, M, W, X
      N   # entries in first level (# of shift register(s))
      W   width of shift register(s)
      M   # entries in 2nd level (# of counters, or other FSM)
      X   (yes-1/no-0) xor history and address for 2nd level index
    Sample predictors:
      GAg     : 1, W, 2^W, 0
      GAp     : 1, W, M (M > 2^W), 0
      PAg     : N, W, 2^W, 0
      PAp     : N, W, M (M == 2^(N+W)), 0
      gshare  : 1, W, 2^W, 1
  Predictor `comb' combines a bimodal and a 2-level predictor.

  The cache config parameter <config> has the following format:

    <name>:<nsets>:<bsize>:<assoc>:<repl>

    <name>   - name of the cache being defined
    <nsets>  - number of sets in the cache
    <bsize>  - block size of the cache
    <assoc>  - associativity of the cache
    <repl>   - block replacement strategy, 'l'-LRU, 'f'-FIFO, 'r'-random

    Examples:   -cache:dl1 dl1:4096:32:1:l
                -dtlb dtlb:128:4096:32:r

  Cache levels can be unified by pointing a level of the instruction cache
  hierarchy at the data cache hiearchy using the "dl1" and "dl2" cache
  configuration arguments.  Most sensible combinations are supported, e.g.,

    A unified l2 cache (il2 is pointed at dl2):
      -cache:il1 il1:128:64:1:l -cache:il2 dl2
      -cache:dl1 dl1:256:32:1:l -cache:dl2 ul2:1024:64:2:l

    Or, a fully unified cache hierarchy (il1 pointed at dl1):
      -cache:il1 dl1
      -cache:dl1 ul1:256:32:1:l -cache:dl2 ul2:1024:64:2:l



sim: ** starting performance simulation **

sim: ** simulation statistics **
sim_num_insn              100000002 # total number of instructions committed
sim_num_refs               40836497 # total number of loads and stores committed
sim_num_loads              31266712 # total number of loads committed
sim_num_stores         9569785.0000 # total number of stores committed
sim_num_branches           14837495 # total number of branches committed
sim_elapsed_time                129 # total simulation time in seconds
sim_inst_rate           775193.8140 # simulation speed (in insts/sec)
sim_total_insn            100000002 # total number of instructions executed
sim_total_refs             40836497 # total number of loads and stores executed
sim_total_loads            31266712 # total number of loads executed
sim_total_stores       9569785.0000 # total number of stores executed
sim_total_branches         14837495 # total number of branches executed
sim_cycle                  44283513 # total simulation time in cycles
sim_IPC                      2.2582 # instructions per cycle
sim_CPI                      0.4428 # cycles per instruction
sim_exec_BW                  2.2582 # total instructions (mis-spec + committed) per cycle
sim_IPB                      6.7397 # instruction per branch
IFQ_count                 160698033 # cumulative IFQ occupancy
IFQ_fcount                 39922400 # cumulative IFQ full count
ifq_occupancy                3.6288 # avg IFQ occupancy (insn's)
ifq_rate                     2.2582 # avg IFQ dispatch rate (insn/cycle)
ifq_latency                  1.6070 # avg IFQ occupant latency (cycle's)
ifq_full                     0.9015 # fraction of time (cycle's) IFQ was full
RUU_count                 558444559 # cumulative RUU occupancy
RUU_fcount                 13950739 # cumulative RUU full count
ruu_occupancy               12.6107 # avg RUU occupancy (insn's)
ruu_rate                     2.2582 # avg RUU dispatch rate (insn/cycle)
ruu_latency                  5.5844 # avg RUU occupant latency (cycle's)
ruu_full                     0.3150 # fraction of time (cycle's) RUU was full
LSQ_count                 225522879 # cumulative LSQ occupancy
LSQ_fcount                 11043020 # cumulative LSQ full count
lsq_occupancy                5.0927 # avg LSQ occupancy (insn's)
lsq_rate                     2.2582 # avg LSQ dispatch rate (insn/cycle)
lsq_latency                  2.2552 # avg LSQ occupant latency (cycle's)
lsq_full                     0.2494 # fraction of time (cycle's) LSQ was full
sim_slip                  924803876 # total number of slip cycles
avg_sim_slip                 9.2480 # the average slip between issue and retirement
il1.accesses              114493905 # total number of accesses
il1.hits                  113252733 # total number of hits
il1.misses                  1241172 # total number of misses
il1.replacements            1240916 # total number of replacements
il1.writebacks                    0 # total number of writebacks
il1.invalidations                 0 # total number of invalidations
il1.miss_rate                0.0108 # miss rate (i.e., misses/ref)
il1.repl_rate                0.0108 # replacement rate (i.e., repls/ref)
il1.wb_rate                  0.0000 # writeback rate (i.e., wrbks/ref)
il1.inv_rate                 0.0000 # invalidation rate (i.e., invs/ref)
dl1.accesses               40728921 # total number of accesses
dl1.hits                   40150742 # total number of hits
dl1.misses                   578179 # total number of misses
dl1.replacements             577923 # total number of replacements
dl1.writebacks               443304 # total number of writebacks
dl1.invalidations                 0 # total number of invalidations
dl1.miss_rate                0.0142 # miss rate (i.e., misses/ref)
dl1.repl_rate                0.0142 # replacement rate (i.e., repls/ref)
dl1.wb_rate                  0.0109 # writeback rate (i.e., wrbks/ref)
dl1.inv_rate                 0.0000 # invalidation rate (i.e., invs/ref)
dl2.accesses                2262655 # total number of accesses
dl2.hits                    2028602 # total number of hits
dl2.misses                   234053 # total number of misses
dl2.replacements             232005 # total number of replacements
dl2.writebacks               102001 # total number of writebacks
dl2.invalidations                 0 # total number of invalidations
dl2.miss_rate                0.1034 # miss rate (i.e., misses/ref)
dl2.repl_rate                0.1025 # replacement rate (i.e., repls/ref)
dl2.wb_rate                  0.0451 # writeback rate (i.e., wrbks/ref)
dl2.inv_rate                 0.0000 # invalidation rate (i.e., invs/ref)
itlb.accesses             114493905 # total number of accesses
itlb.hits                 114484703 # total number of hits
itlb.misses                    9202 # total number of misses
itlb.replacements              9138 # total number of replacements
itlb.writebacks                   0 # total number of writebacks
itlb.invalidations                0 # total number of invalidations
itlb.miss_rate               0.0001 # miss rate (i.e., misses/ref)
itlb.repl_rate               0.0001 # replacement rate (i.e., repls/ref)
itlb.wb_rate                 0.0000 # writeback rate (i.e., wrbks/ref)
itlb.inv_rate                0.0000 # invalidation rate (i.e., invs/ref)
dtlb.accesses              40836491 # total number of accesses
dtlb.hits                  40825132 # total number of hits
dtlb.misses                   11359 # total number of misses
dtlb.replacements             11231 # total number of replacements
dtlb.writebacks                   0 # total number of writebacks
dtlb.invalidations                0 # total number of invalidations
dtlb.miss_rate               0.0003 # miss rate (i.e., misses/ref)
dtlb.repl_rate               0.0003 # replacement rate (i.e., repls/ref)
dtlb.wb_rate                 0.0000 # writeback rate (i.e., wrbks/ref)
dtlb.inv_rate                0.0000 # invalidation rate (i.e., invs/ref)
rename_power           18508980.0624 # total power usage of rename unit
bpred_power            126194237.7045 # total power usage of bpred unit
window_power           97615007.5913 # total power usage of instruction window
lsq_power              282937622.9945 # total power usage of load/store queue
regfile_power          158201614.9305 # total power usage of arch. regfile
icache_power           134292545.5510 # total power usage of icache
dcache_power           1140512274.2968 # total power usage of dcache
dcache2_power          137410712.1358 # total power usage of dcache2
alu_power              1677563576.1304 # total power usage of alu
falu_power             1264829680.0024 # total power usage of falu
resultbus_power        185139393.3885 # total power usage of resultbus
clock_power            1729096054.7893 # total power usage of clock
avg_rename_power             0.4180 # avg power usage of rename unit
avg_bpred_power              2.8497 # avg power usage of bpred unit
avg_window_power             2.2043 # avg power usage of instruction window
avg_lsq_power                6.3892 # avg power usage of lsq
avg_regfile_power            3.5725 # avg power usage of arch. regfile
avg_icache_power             3.0326 # avg power usage of icache
avg_dcache_power            25.7548 # avg power usage of dcache
avg_dcache2_power            3.1030 # avg power usage of dcache2
avg_alu_power               37.8824 # avg power usage of alu
avg_falu_power              28.5621 # avg power usage of falu
avg_resultbus_power          4.1808 # avg power usage of resultbus
avg_clock_power             39.0460 # avg power usage of clock
fetch_stage_power      260486783.2555 # total power usage of fetch stage
dispatch_stage_power   18508980.0624 # total power usage of dispatch stage
issue_stage_power      3521178586.5374 # total power usage of issue stage
avg_fetch_power              5.8823 # average power of fetch unit per cycle
avg_dispatch_power           0.4180 # average power of dispatch unit per cycle
avg_issue_power             79.5144 # average power of issue unit per cycle
total_power            5687472019.5750 # total power per cycle
avg_total_power_cycle      128.4332 # average total power per cycle
avg_total_power_cycle_nofp_nod2      96.7681 # average total power per cycle
avg_total_power_insn        56.8747 # average total power per insn
avg_total_power_insn_nofp_nod2      42.8523 # average total power per insn
rename_power_cc1       15130286.6688 # total power usage of rename unit_cc1
bpred_power_cc1              0.0000 # total power usage of bpred unit_cc1
window_power_cc1       93822514.1200 # total power usage of instruction window_cc1
lsq_power_cc1          79894091.4713 # total power usage of lsq_cc1
regfile_power_cc1      123081779.2081 # total power usage of arch. regfile_cc1
icache_power_cc1       112297399.0312 # total power usage of icache_cc1
dcache_power_cc1       600760527.1219 # total power usage of dcache_cc1
dcache2_power_cc1      5573579.2899 # total power usage of dcache2_cc1
alu_power_cc1          352802954.4195 # total power usage of alu_cc1
resultbus_power_cc1    155755047.2948 # total power usage of resultbus_cc1
clock_power_cc1        690755435.0029 # total power usage of clock_cc1
avg_rename_power_cc1         0.3417 # avg power usage of rename unit_cc1
avg_bpred_power_cc1          0.0000 # avg power usage of bpred unit_cc1
avg_window_power_cc1         2.1187 # avg power usage of instruction window_cc1
avg_lsq_power_cc1            1.8041 # avg power usage of lsq_cc1
avg_regfile_power_cc1        2.7794 # avg power usage of arch. regfile_cc1
avg_icache_power_cc1         2.5359 # avg power usage of icache_cc1
avg_dcache_power_cc1        13.5662 # avg power usage of dcache_cc1
avg_dcache2_power_cc1        0.1259 # avg power usage of dcache2_cc1
avg_alu_power_cc1            7.9669 # avg power usage of alu_cc1
avg_resultbus_power_cc1       3.5172 # avg power usage of resultbus_cc1
avg_clock_power_cc1         15.5985 # avg power usage of clock_cc1
fetch_stage_power_cc1  112297399.0312 # total power usage of fetch stage_cc1
dispatch_stage_power_cc1 15130286.6688 # total power usage of dispatch stage_cc1
issue_stage_power_cc1  1288608713.7174 # total power usage of issue stage_cc1
avg_fetch_power_cc1          2.5359 # average power of fetch unit per cycle_cc1
avg_dispatch_power_cc1       0.3417 # average power of dispatch unit per cycle_cc1
avg_issue_power_cc1         29.0991 # average power of issue unit per cycle_cc1
total_power_cycle_cc1  2229873613.6283 # total power per cycle_cc1
avg_total_power_cycle_cc1      50.3545 # average total power per cycle_cc1
avg_total_power_insn_cc1      22.2987 # average total power per insn_cc1
rename_power_cc2       10449137.3758 # total power usage of rename unit_cc2
bpred_power_cc2              0.0000 # total power usage of bpred unit_cc2
window_power_cc2       85777685.7006 # total power usage of instruction window_cc2
lsq_power_cc2          14702575.3206 # total power usage of lsq_cc2
regfile_power_cc2      39036471.3974 # total power usage of arch. regfile_cc2
icache_power_cc2       112297399.0312 # total power usage of icache_cc2
dcache_power_cc2       131120565.9647 # total power usage of dcache_cc2
dcache2_power_cc2       877620.7385 # total power usage of dcache2_cc2
alu_power_cc2          116148843.3196 # total power usage of alu_cc2
resultbus_power_cc2    114085381.4652 # total power usage of resultbus_cc2
clock_power_cc2        292477915.5094 # total power usage of clock_cc2
avg_rename_power_cc2         0.2360 # avg power usage of rename unit_cc2
avg_bpred_power_cc2          0.0000 # avg power usage of bpred unit_cc2
avg_window_power_cc2         1.9370 # avg power usage of instruction window_cc2
avg_lsq_power_cc2            0.3320 # avg power usage of instruction lsq_cc2
avg_regfile_power_cc2        0.8815 # avg power usage of arch. regfile_cc2
avg_icache_power_cc2         2.5359 # avg power usage of icache_cc2
avg_dcache_power_cc2         2.9609 # avg power usage of dcache_cc2
avg_dcache2_power_cc2        0.0198 # avg power usage of dcache2_cc2
avg_alu_power_cc2            2.6228 # avg power usage of alu_cc2
avg_resultbus_power_cc2       2.5762 # avg power usage of resultbus_cc2
avg_clock_power_cc2          6.6047 # avg power usage of clock_cc2
fetch_stage_power_cc2  112297399.0312 # total power usage of fetch stage_cc2
dispatch_stage_power_cc2 10449137.3758 # total power usage of dispatch stage_cc2
issue_stage_power_cc2  462712672.5092 # total power usage of issue stage_cc2
avg_fetch_power_cc2          2.5359 # average power of fetch unit per cycle_cc2
avg_dispatch_power_cc2       0.2360 # average power of dispatch unit per cycle_cc2
avg_issue_power_cc2         10.4489 # average power of issue unit per cycle_cc2
total_power_cycle_cc2  916973595.8230 # total power per cycle_cc2
avg_total_power_cycle_cc2      20.7069 # average total power per cycle_cc2
avg_total_power_insn_cc2       9.1697 # average total power per insn_cc2
rename_power_cc3       10787006.7129 # total power usage of rename unit_cc3
bpred_power_cc3        12619423.7828 # total power usage of bpred unit_cc3
window_power_cc3       86488713.0155 # total power usage of instruction window_cc3
lsq_power_cc3          34856671.0698 # total power usage of lsq_cc3
regfile_power_cc3      41037803.1400 # total power usage of arch. regfile_cc3
icache_power_cc3       114496913.6662 # total power usage of icache_cc3
dcache_power_cc3       185095740.6960 # total power usage of dcache_cc3
dcache2_power_cc3      14061334.0346 # total power usage of dcache2_cc3
alu_power_cc3          248624905.1244 # total power usage of alu_cc3
resultbus_power_cc3    115988942.1300 # total power usage of resultbus_cc3
clock_power_cc3        395334469.5457 # total power usage of clock_cc3
avg_rename_power_cc3         0.2436 # avg power usage of rename unit_cc3
avg_bpred_power_cc3          0.2850 # avg power usage of bpred unit_cc3
avg_window_power_cc3         1.9531 # avg power usage of instruction window_cc3
avg_lsq_power_cc3            0.7871 # avg power usage of instruction lsq_cc3
avg_regfile_power_cc3        0.9267 # avg power usage of arch. regfile_cc3
avg_icache_power_cc3         2.5855 # avg power usage of icache_cc3
avg_dcache_power_cc3         4.1798 # avg power usage of dcache_cc3
avg_dcache2_power_cc3        0.3175 # avg power usage of dcache2_cc3
avg_alu_power_cc3            5.6144 # avg power usage of alu_cc3
avg_resultbus_power_cc3       2.6192 # avg power usage of resultbus_cc3
avg_clock_power_cc3          8.9274 # avg power usage of clock_cc3
fetch_stage_power_cc3  127116337.4490 # total power usage of fetch stage_cc3
dispatch_stage_power_cc3 10787006.7129 # total power usage of dispatch stage_cc3
issue_stage_power_cc3  685116306.0704 # total power usage of issue stage_cc3
avg_fetch_power_cc3          2.8705 # average power of fetch unit per cycle_cc3
avg_dispatch_power_cc3       0.2436 # average power of dispatch unit per cycle_cc3
avg_issue_power_cc3         15.4711 # average power of issue unit per cycle_cc3
total_power_cycle_cc3  1259391922.9180 # total power per cycle_cc3
avg_total_power_cycle_cc3      28.4393 # average total power per cycle_cc3
avg_total_power_insn_cc3      12.5939 # average total power per insn_cc3
total_rename_access       100000002 # total number accesses of rename unit
total_bpred_access                0 # total number accesses of bpred unit
total_window_access       397226582 # total number accesses of instruction window
total_lsq_access           40944062 # total number accesses of load/store queue
total_regfile_access      147801147 # total number accesses of arch. regfile
total_icache_access       114493905 # total number accesses of icache
total_dcache_access        40728921 # total number accesses of dcache
total_dcache2_access        2262655 # total number accesses of dcache2
total_alu_access           99645770 # total number accesses of alu
total_resultbus_access    116429208 # total number accesses of resultbus
avg_rename_access            2.2582 # avg number accesses of rename unit
avg_bpred_access             0.0000 # avg number accesses of bpred unit
avg_window_access            8.9701 # avg number accesses of instruction window
avg_lsq_access               0.9246 # avg number accesses of lsq
avg_regfile_access           3.3376 # avg number accesses of arch. regfile
avg_icache_access            2.5855 # avg number accesses of icache
avg_dcache_access            0.9197 # avg number accesses of dcache
avg_dcache2_access           0.0511 # avg number accesses of dcache2
avg_alu_access               2.2502 # avg number accesses of alu
avg_resultbus_access         2.6292 # avg number accesses of resultbus
max_rename_access                 4 # max number accesses of rename unit
max_bpred_access                  0 # max number accesses of bpred unit
max_window_access                18 # max number accesses of instruction window
max_lsq_access                    7 # max number accesses of load/store queue
max_regfile_access               12 # max number accesses of arch. regfile
max_icache_access                 4 # max number accesses of icache
max_dcache_access                 6 # max number accesses of dcache
max_dcache2_access                6 # max number accesses of dcache2
max_alu_access                    4 # max number accesses of alu
max_resultbus_access              8 # max number accesses of resultbus
max_cycle_power_cc1         97.2072 # maximum cycle power usage of cc1
max_cycle_power_cc2         39.8821 # maximum cycle power usage of cc2
max_cycle_power_cc3         46.6456 # maximum cycle power usage of cc3
sim_invalid_addrs                 0 # total non-speculative bogus addresses seen (debug var)
ld_text_base           0x0120000000 # program text (code) segment base
ld_text_size                1990656 # program text (code) size in bytes
ld_data_base           0x0140000000 # program initialized data segment base
ld_data_size                 306320 # program init'ed `.data' and uninit'ed `.bss' size in bytes
ld_stack_base          0x011ff9b000 # program stack segment base (highest address in stack)
ld_stack_size                 16384 # program initial stack size
ld_prog_entry          0x0120128140 # program entry point (initial PC)
ld_environ_base        0x011ff7f0b0 # program environment base address address
ld_target_big_endian              0 # target executable endian-ness, non-zero if big endian
mem.page_count                 5831 # total number of pages allocated
mem.page_mem                 46648k # total size of memory pages allocated
mem.ptab_misses               56866 # total first level page table misses
mem.ptab_accesses         846743936 # total page table accesses
mem.ptab_miss_rate           0.0001 # first level page table miss rate

