sim-outorder: SimpleScalar/Alpha Tool Set version 3.0 of August, 2003.
Copyright (c) 1994-2003 by Todd M. Austin, Ph.D. and SimpleScalar, LLC.
All Rights Reserved. This version of SimpleScalar is licensed for academic
non-commercial use.  No portion of this work may be used by any commercial
entity, or for any commercial purpose, without the prior written permission
of SimpleScalar, LLC (info@simplescalar.com).


Processor Parameters:
Issue Width: 4
Window Size: 16
Number of Virtual Registers: 32
Number of Physical Registers: 16
Datapath Width: 64
Total Power Consumption: 130.433
Branch Predictor Power Consumption: 2.84969  (2.22%)
 branch target buffer power (W): 2.49493
 local predict power (W): 0.0879711
 global predict power (W): 0.0996078
 chooser power (W): 0.0702439
 RAS power (W): 0.0969383
Rename Logic Power Consumption: 0.417965  (0.325%)
 Instruction Decode Power (W): 0.0159915
 RAT decode_power (W): 0.113514
 RAT wordline_power (W): 0.0307815
 RAT bitline_power (W): 0.246771
 DCL Comparators (W): 0.0109075
Instruction Window Power Consumption: 2.20432  (1.72%)
 tagdrive (W): 0.0943488
 tagmatch (W): 0.033695
 Selection Logic (W): 0.0134217
 decode_power (W): 0.0532503
 wordline_power (W): 0.0844643
 bitline_power (W): 1.92514
Load/Store Queue Power Consumption: 6.38923  (4.97%)
 tagdrive (W): 2.22773
 tagmatch (W): 0.482855
 decode_power (W): 0.0319831
 wordline_power (W): 0.139808
 bitline_power (W): 3.50685
Arch. Register File Power Consumption: 3.57247  (2.78%)
 decode_power (W): 0.113514
 wordline_power (W): 0.0844643
 bitline_power (W): 3.37449
Result Bus Power Consumption: 4.18077  (3.26%)
Total Clock Power: 39.046  (30.4%)
Int ALU Power: 9.32026  (7.26%)
FP ALU Power: 28.5621  (22.2%)
Instruction Cache Power Consumption: 2.76773  (2.15%)
 decode_power (W): 0.151353
 wordline_power (W): 0.180479
 bitline_power (W): 1.42251
 senseamp_power (W): 0.768
 tagarray_power (W): 0.245382
Itlb_power (W): 0.264834 (0.206%)
Data Cache Power Consumption: 22.1418  (17.2%)
 decode_power (W): 1.21082
 wordline_power (W): 1.44383
 bitline_power (W): 11.3801
 senseamp_power (W): 6.144
 tagarray_power (W): 1.96306
Dtlb_power (W): 3.61295 (2.81%)
Level 2 Cache Power Consumption: 3.10298 (2.42%)
 decode_power (W): 0.19487
 wordline_power (W): 0.0430878
 bitline_power (W): 1.77274
 senseamp_power (W): 0.192
 tagarray_power (W): 0.900275
sim: loading EIO file: ../benchmarks/176.gcc.00-166-ref.eio.gz
sim: command line: ./sim-outorder -config ../configs/current.config ../benchmarks/176.gcc.00-166-ref.eio.gz 

sim: simulation started @ Sun Nov 22 21:53:14 2015, options follow:

sim-outorder: This simulator implements a very detailed out-of-order issue
superscalar processor with a two-level memory system and speculative
execution support.  This simulator is a performance simulator, tracking the
latency of all pipeline operations.

# -config                     # load configuration from a file
# -dumpconfig                 # dump configuration to a file
# -h                    false # print help message    
# -v                    false # verbose operation     
# -d                    false # enable debug message  
# -i                    false # start in Dlite debugger
-seed                       1 # random number generator seed (0 for timer seed)
# -q                    false # initialize and terminate immediately
# -chkpt               <null> # restore EIO trace execution from <fname>
# -redir:sim     ../results/max_num_fus/176.gcc.00-166-ref.eio.gz.out # redirect simulator output to file (non-interactive only)
# -redir:prog       /dev/null # redirect simulated program output to file
-nice                       0 # simulator scheduling priority
-freq            600000000.0000 # frequency             
-max:inst           100000000 # maximum number of inst's to execute
-fastfwd                    0 # number of insts skipped before timing starts
# -ptrace              <null> # generate pipetrace, i.e., <fname|stdout|stderr> <range>
-fetch:ifqsize              4 # instruction fetch queue size (in insts)
-fetch:mplat                3 # extra branch mis-prediction latency
-fetch:speed                1 # speed of front-end of machine relative to execution core
-bpred                perfect # branch predictor type {nottaken|taken|perfect|bimod|2lev|comb}
-bpred:bimod     2048 # bimodal predictor config (<table size>)
-bpred:2lev      1 1024 8 0 # 2-level predictor config (<l1size> <l2size> <hist_size> <xor>)
-bpred:comb      1024 # combining predictor config (<meta_table_size>)
-bpred:ras                  8 # return address stack size (0 for no return stack)
-bpred:btb       512 4 # BTB config (<num_sets> <associativity>)
# -bpred:spec_update       <null> # speculative predictors update in {ID|WB} (default non-spec)
-decode:width               4 # instruction decode B/W (insts/cycle)
-issue:width                4 # instruction issue B/W (insts/cycle)
-issue:inorder          false # run pipeline with in-order issue
-issue:wrongpath         true # issue instructions down wrong execution paths
-commit:width               4 # instruction commit B/W (insts/cycle)
-ruu:size                  16 # register update unit (RUU) size
-lsq:size                   8 # load/store queue (LSQ) size
-cache:dl1       dl1:32:64:8:f # l1 data cache config, i.e., {<config>|none}
-cache:dl1lat               1 # l1 data cache hit latency (in cycles)
-cache:dl2       dl2:256:64:8:f # l2 data cache config, i.e., {<config>|none}
-cache:dl2lat               2 # l2 data cache hit latency (in cycles)
-cache:il1       il1:32:64:8:f # l1 inst cache config, i.e., {<config>|dl1|dl2|none}
-cache:il1lat               1 # l1 instruction cache hit latency (in cycles)
-cache:il2                dl2 # l2 instruction cache config, i.e., {<config>|dl2|none}
-cache:il2lat               2 # l2 instruction cache hit latency (in cycles)
-cache:flush            false # flush caches on system calls
-cache:icompress        false # convert 64-bit inst addresses to 32-bit inst equivalents
-mem:lat         18 1 # memory access latency (<first_chunk> <inter_chunk>)
-mem:width                  8 # memory access bus width (in bytes)
-tlb:itlb        itlb:16:4096:4:l # instruction TLB config, i.e., {<config>|none}
-tlb:dtlb        dtlb:32:4096:4:l # data TLB config, i.e., {<config>|none}
-tlb:lat                   30 # inst/data TLB miss latency (in cycles)
-res:ialu                   8 # total number of integer ALU's available
-res:imult                  8 # total number of integer multiplier/dividers available
-res:memport                8 # total number of memory system ports available (to CPU)
-res:fpalu                  8 # total number of floating point ALU's available
-res:fpmult                 8 # total number of floating point multiplier/dividers available
# -pcstat              <null> # profile stat(s) against text addr's (mult uses ok)
-bugcompat              false # operate in backward-compatible bugs mode (for testing only)

  Pipetrace range arguments are formatted as follows:

    {{@|#}<start>}:{{@|#|+}<end>}

  Both ends of the range are optional, if neither are specified, the entire
  execution is traced.  Ranges that start with a `@' designate an address
  range to be traced, those that start with an `#' designate a cycle count
  range.  All other range values represent an instruction count range.  The
  second argument, if specified with a `+', indicates a value relative
  to the first argument, e.g., 1000:+100 == 1000:1100.  Program symbols may
  be used in all contexts.

    Examples:   -ptrace FOO.trc #0:#1000
                -ptrace BAR.trc @2000:
                -ptrace BLAH.trc :1500
                -ptrace UXXE.trc :
                -ptrace FOOBAR.trc @main:+278

  Branch predictor configuration examples for 2-level predictor:
    Configurations:   N, M, W, X
      N   # entries in first level (# of shift register(s))
      W   width of shift register(s)
      M   # entries in 2nd level (# of counters, or other FSM)
      X   (yes-1/no-0) xor history and address for 2nd level index
    Sample predictors:
      GAg     : 1, W, 2^W, 0
      GAp     : 1, W, M (M > 2^W), 0
      PAg     : N, W, 2^W, 0
      PAp     : N, W, M (M == 2^(N+W)), 0
      gshare  : 1, W, 2^W, 1
  Predictor `comb' combines a bimodal and a 2-level predictor.

  The cache config parameter <config> has the following format:

    <name>:<nsets>:<bsize>:<assoc>:<repl>

    <name>   - name of the cache being defined
    <nsets>  - number of sets in the cache
    <bsize>  - block size of the cache
    <assoc>  - associativity of the cache
    <repl>   - block replacement strategy, 'l'-LRU, 'f'-FIFO, 'r'-random

    Examples:   -cache:dl1 dl1:4096:32:1:l
                -dtlb dtlb:128:4096:32:r

  Cache levels can be unified by pointing a level of the instruction cache
  hierarchy at the data cache hiearchy using the "dl1" and "dl2" cache
  configuration arguments.  Most sensible combinations are supported, e.g.,

    A unified l2 cache (il2 is pointed at dl2):
      -cache:il1 il1:128:64:1:l -cache:il2 dl2
      -cache:dl1 dl1:256:32:1:l -cache:dl2 ul2:1024:64:2:l

    Or, a fully unified cache hierarchy (il1 pointed at dl1):
      -cache:il1 dl1
      -cache:dl1 ul1:256:32:1:l -cache:dl2 ul2:1024:64:2:l



sim: ** starting performance simulation **

sim: ** simulation statistics **
sim_num_insn              100000000 # total number of instructions committed
sim_num_refs               59898550 # total number of loads and stores committed
sim_num_loads              42415232 # total number of loads committed
sim_num_stores         17483318.0000 # total number of stores committed
sim_num_branches            7569069 # total number of branches committed
sim_elapsed_time                134 # total simulation time in seconds
sim_inst_rate           746268.6567 # simulation speed (in insts/sec)
sim_total_insn            100000000 # total number of instructions executed
sim_total_refs             59898550 # total number of loads and stores executed
sim_total_loads            42415232 # total number of loads executed
sim_total_stores       17483318.0000 # total number of stores executed
sim_total_branches          7569069 # total number of branches executed
sim_cycle                  44995222 # total simulation time in cycles
sim_IPC                      2.2225 # instructions per cycle
sim_CPI                      0.4500 # cycles per instruction
sim_exec_BW                  2.2225 # total instructions (mis-spec + committed) per cycle
sim_IPB                     13.2117 # instruction per branch
IFQ_count                 172963211 # cumulative IFQ occupancy
IFQ_fcount                 43216439 # cumulative IFQ full count
ifq_occupancy                3.8440 # avg IFQ occupancy (insn's)
ifq_rate                     2.2225 # avg IFQ dispatch rate (insn/cycle)
ifq_latency                  1.7296 # avg IFQ occupant latency (cycle's)
ifq_full                     0.9605 # fraction of time (cycle's) IFQ was full
RUU_count                 498391840 # cumulative RUU occupancy
RUU_fcount                  8137821 # cumulative RUU full count
ruu_occupancy               11.0766 # avg RUU occupancy (insn's)
ruu_rate                     2.2225 # avg RUU dispatch rate (insn/cycle)
ruu_latency                  4.9839 # avg RUU occupant latency (cycle's)
ruu_full                     0.1809 # fraction of time (cycle's) RUU was full
LSQ_count                 284716097 # cumulative LSQ occupancy
LSQ_fcount                 25680015 # cumulative LSQ full count
lsq_occupancy                6.3277 # avg LSQ occupancy (insn's)
lsq_rate                     2.2225 # avg LSQ dispatch rate (insn/cycle)
lsq_latency                  2.8472 # avg LSQ occupant latency (cycle's)
lsq_full                     0.5707 # fraction of time (cycle's) LSQ was full
sim_slip                  943006398 # total number of slip cycles
avg_sim_slip                 9.4301 # the average slip between issue and retirement
il1.accesses              110562336 # total number of accesses
il1.hits                  110487681 # total number of hits
il1.misses                    74655 # total number of misses
il1.replacements              74399 # total number of replacements
il1.writebacks                    0 # total number of writebacks
il1.invalidations                 0 # total number of invalidations
il1.miss_rate                0.0007 # miss rate (i.e., misses/ref)
il1.repl_rate                0.0007 # replacement rate (i.e., repls/ref)
il1.wb_rate                  0.0000 # writeback rate (i.e., wrbks/ref)
il1.inv_rate                 0.0000 # invalidation rate (i.e., invs/ref)
dl1.accesses               59887936 # total number of accesses
dl1.hits                   57613471 # total number of hits
dl1.misses                  2274465 # total number of misses
dl1.replacements            2274209 # total number of replacements
dl1.writebacks              2141471 # total number of writebacks
dl1.invalidations                 0 # total number of invalidations
dl1.miss_rate                0.0380 # miss rate (i.e., misses/ref)
dl1.repl_rate                0.0380 # replacement rate (i.e., repls/ref)
dl1.wb_rate                  0.0358 # writeback rate (i.e., wrbks/ref)
dl1.inv_rate                 0.0000 # invalidation rate (i.e., invs/ref)
dl2.accesses                4490591 # total number of accesses
dl2.hits                    2239889 # total number of hits
dl2.misses                  2250702 # total number of misses
dl2.replacements            2248654 # total number of replacements
dl2.writebacks              2123674 # total number of writebacks
dl2.invalidations                 0 # total number of invalidations
dl2.miss_rate                0.5012 # miss rate (i.e., misses/ref)
dl2.repl_rate                0.5007 # replacement rate (i.e., repls/ref)
dl2.wb_rate                  0.4729 # writeback rate (i.e., wrbks/ref)
dl2.inv_rate                 0.0000 # invalidation rate (i.e., invs/ref)
itlb.accesses             110562336 # total number of accesses
itlb.hits                 110562268 # total number of hits
itlb.misses                      68 # total number of misses
itlb.replacements                21 # total number of replacements
itlb.writebacks                   0 # total number of writebacks
itlb.invalidations                0 # total number of invalidations
itlb.miss_rate               0.0000 # miss rate (i.e., misses/ref)
itlb.repl_rate               0.0000 # replacement rate (i.e., repls/ref)
itlb.wb_rate                 0.0000 # writeback rate (i.e., wrbks/ref)
itlb.inv_rate                0.0000 # invalidation rate (i.e., invs/ref)
dtlb.accesses              59898548 # total number of accesses
dtlb.hits                  59836091 # total number of hits
dtlb.misses                   62457 # total number of misses
dtlb.replacements             62329 # total number of replacements
dtlb.writebacks                   0 # total number of writebacks
dtlb.invalidations                0 # total number of invalidations
dtlb.miss_rate               0.0010 # miss rate (i.e., misses/ref)
dtlb.repl_rate               0.0010 # replacement rate (i.e., repls/ref)
dtlb.wb_rate                 0.0000 # writeback rate (i.e., wrbks/ref)
dtlb.inv_rate                0.0000 # invalidation rate (i.e., invs/ref)
rename_power           18806449.8609 # total power usage of rename unit
bpred_power            128222386.9754 # total power usage of bpred unit
window_power           99183841.5596 # total power usage of instruction window
lsq_power              287484896.6856 # total power usage of load/store queue
regfile_power          160744175.4731 # total power usage of arch. regfile
icache_power           136450847.9742 # total power usage of icache
dcache_power           1158842185.2602 # total power usage of dcache
dcache2_power          139619128.6293 # total power usage of dcache2
alu_power              1704524786.2225 # total power usage of alu
falu_power             1285157576.4573 # total power usage of falu
resultbus_power        188114888.4039 # total power usage of resultbus
clock_power            1756885476.6461 # total power usage of clock
avg_rename_power             0.4180 # avg power usage of rename unit
avg_bpred_power              2.8497 # avg power usage of bpred unit
avg_window_power             2.2043 # avg power usage of instruction window
avg_lsq_power                6.3892 # avg power usage of lsq
avg_regfile_power            3.5725 # avg power usage of arch. regfile
avg_icache_power             3.0326 # avg power usage of icache
avg_dcache_power            25.7548 # avg power usage of dcache
avg_dcache2_power            3.1030 # avg power usage of dcache2
avg_alu_power               37.8824 # avg power usage of alu
avg_falu_power              28.5621 # avg power usage of falu
avg_resultbus_power          4.1808 # avg power usage of resultbus
avg_clock_power             39.0460 # avg power usage of clock
fetch_stage_power      264673234.9496 # total power usage of fetch stage
dispatch_stage_power   18806449.8609 # total power usage of dispatch stage
issue_stage_power      3577769726.7610 # total power usage of issue stage
avg_fetch_power              5.8823 # average power of fetch unit per cycle
avg_dispatch_power           0.4180 # average power of dispatch unit per cycle
avg_issue_power             79.5144 # average power of issue unit per cycle
total_power            5778879063.6907 # total power per cycle
avg_total_power_cycle      128.4332 # average total power per cycle
avg_total_power_cycle_nofp_nod2      96.7681 # average total power per cycle
avg_total_power_insn        57.7888 # average total power per insn
avg_total_power_insn_nofp_nod2      43.5410 # average total power per insn
rename_power_cc1       16467422.2093 # total power usage of rename unit_cc1
bpred_power_cc1              0.0000 # total power usage of bpred unit_cc1
window_power_cc1       101756795.0415 # total power usage of instruction window_cc1
lsq_power_cc1          142072257.6954 # total power usage of lsq_cc1
regfile_power_cc1      126130734.1909 # total power usage of arch. regfile_cc1
icache_power_cc1       119622882.6207 # total power usage of icache_cc1
dcache_power_cc1       815532136.2984 # total power usage of dcache_cc1
dcache2_power_cc1      7229178.7526 # total power usage of dcache2_cc1
alu_power_cc1          380326428.3201 # total power usage of alu_cc1
resultbus_power_cc1    166566677.7846 # total power usage of resultbus_cc1
clock_power_cc1        845094139.9214 # total power usage of clock_cc1
avg_rename_power_cc1         0.3660 # avg power usage of rename unit_cc1
avg_bpred_power_cc1          0.0000 # avg power usage of bpred unit_cc1
avg_window_power_cc1         2.2615 # avg power usage of instruction window_cc1
avg_lsq_power_cc1            3.1575 # avg power usage of lsq_cc1
avg_regfile_power_cc1        2.8032 # avg power usage of arch. regfile_cc1
avg_icache_power_cc1         2.6586 # avg power usage of icache_cc1
avg_dcache_power_cc1        18.1249 # avg power usage of dcache_cc1
avg_dcache2_power_cc1        0.1607 # avg power usage of dcache2_cc1
avg_alu_power_cc1            8.4526 # avg power usage of alu_cc1
avg_resultbus_power_cc1       3.7019 # avg power usage of resultbus_cc1
avg_clock_power_cc1         18.7819 # avg power usage of clock_cc1
fetch_stage_power_cc1  119622882.6207 # total power usage of fetch stage_cc1
dispatch_stage_power_cc1 16467422.2093 # total power usage of dispatch stage_cc1
issue_stage_power_cc1  1613483473.8925 # total power usage of issue stage_cc1
avg_fetch_power_cc1          2.6586 # average power of fetch unit per cycle_cc1
avg_dispatch_power_cc1       0.3660 # average power of dispatch unit per cycle_cc1
avg_issue_power_cc1         35.8590 # average power of issue unit per cycle_cc1
total_power_cycle_cc1  2720798652.8348 # total power per cycle_cc1
avg_total_power_cycle_cc1      60.4686 # average total power per cycle_cc1
avg_total_power_insn_cc1      27.2080 # average total power per insn_cc1
rename_power_cc2       10449137.1668 # total power usage of rename unit_cc2
bpred_power_cc2              0.0000 # total power usage of bpred unit_cc2
window_power_cc2       97845973.8231 # total power usage of instruction window_cc2
lsq_power_cc2          22385974.2889 # total power usage of lsq_cc2
regfile_power_cc2      44026229.5361 # total power usage of arch. regfile_cc2
icache_power_cc2       119622882.6207 # total power usage of icache_cc2
dcache_power_cc2       192800100.5512 # total power usage of dcache_cc2
dcache2_power_cc2      1741774.9457 # total power usage of dcache2_cc2
alu_power_cc2          114088275.6087 # total power usage of alu_cc2
resultbus_power_cc2    132131576.5021 # total power usage of resultbus_cc2
clock_power_cc2        331784281.6441 # total power usage of clock_cc2
avg_rename_power_cc2         0.2322 # avg power usage of rename unit_cc2
avg_bpred_power_cc2          0.0000 # avg power usage of bpred unit_cc2
avg_window_power_cc2         2.1746 # avg power usage of instruction window_cc2
avg_lsq_power_cc2            0.4975 # avg power usage of instruction lsq_cc2
avg_regfile_power_cc2        0.9785 # avg power usage of arch. regfile_cc2
avg_icache_power_cc2         2.6586 # avg power usage of icache_cc2
avg_dcache_power_cc2         4.2849 # avg power usage of dcache_cc2
avg_dcache2_power_cc2        0.0387 # avg power usage of dcache2_cc2
avg_alu_power_cc2            2.5356 # avg power usage of alu_cc2
avg_resultbus_power_cc2       2.9366 # avg power usage of resultbus_cc2
avg_clock_power_cc2          7.3738 # avg power usage of clock_cc2
fetch_stage_power_cc2  119622882.6207 # total power usage of fetch stage_cc2
dispatch_stage_power_cc2 10449137.1668 # total power usage of dispatch stage_cc2
issue_stage_power_cc2  560993675.7199 # total power usage of issue stage_cc2
avg_fetch_power_cc2          2.6586 # average power of fetch unit per cycle_cc2
avg_dispatch_power_cc2       0.2322 # average power of dispatch unit per cycle_cc2
avg_issue_power_cc2         12.4678 # average power of issue unit per cycle_cc2
total_power_cycle_cc2  1066876206.6876 # total power per cycle_cc2
avg_total_power_cycle_cc2      23.7109 # average total power per cycle_cc2
avg_total_power_insn_cc2      10.6688 # average total power per insn_cc2
rename_power_cc3       10683039.9309 # total power usage of rename unit_cc3
bpred_power_cc3        12822238.7106 # total power usage of bpred unit_cc3
window_power_cc3       98348374.9316 # total power usage of instruction window_cc3
lsq_power_cc3          36913868.1994 # total power usage of lsq_cc3
regfile_power_cc3      45929104.3043 # total power usage of arch. regfile_cc3
icache_power_cc3       121305679.1461 # total power usage of icache_cc3
dcache_power_cc3       227131105.4561 # total power usage of dcache_cc3
dcache2_power_cc3      14980769.9454 # total power usage of dcache2_cc3
alu_power_cc3          246508111.0297 # total power usage of alu_cc3
resultbus_power_cc3    133183540.5300 # total power usage of resultbus_cc3
clock_power_cc3        422101300.3089 # total power usage of clock_cc3
avg_rename_power_cc3         0.2374 # avg power usage of rename unit_cc3
avg_bpred_power_cc3          0.2850 # avg power usage of bpred unit_cc3
avg_window_power_cc3         2.1858 # avg power usage of instruction window_cc3
avg_lsq_power_cc3            0.8204 # avg power usage of instruction lsq_cc3
avg_regfile_power_cc3        1.0208 # avg power usage of arch. regfile_cc3
avg_icache_power_cc3         2.6960 # avg power usage of icache_cc3
avg_dcache_power_cc3         5.0479 # avg power usage of dcache_cc3
avg_dcache2_power_cc3        0.3329 # avg power usage of dcache2_cc3
avg_alu_power_cc3            5.4785 # avg power usage of alu_cc3
avg_resultbus_power_cc3       2.9599 # avg power usage of resultbus_cc3
avg_clock_power_cc3          9.3810 # avg power usage of clock_cc3
fetch_stage_power_cc3  134127917.8568 # total power usage of fetch stage_cc3
dispatch_stage_power_cc3 10683039.9309 # total power usage of dispatch stage_cc3
issue_stage_power_cc3  757065770.0921 # total power usage of issue stage_cc3
avg_fetch_power_cc3          2.9809 # average power of fetch unit per cycle_cc3
avg_dispatch_power_cc3       0.2374 # average power of dispatch unit per cycle_cc3
avg_issue_power_cc3         16.8255 # average power of issue unit per cycle_cc3
total_power_cycle_cc3  1369907132.4930 # total power per cycle_cc3
avg_total_power_cycle_cc3      30.4456 # average total power per cycle_cc3
avg_total_power_insn_cc3      13.6991 # average total power per insn_cc3
total_rename_access       100000000 # total number accesses of rename unit
total_bpred_access                0 # total number accesses of bpred unit
total_window_access       452822185 # total number accesses of instruction window
total_lsq_access           59909160 # total number accesses of load/store queue
total_regfile_access      166639557 # total number accesses of arch. regfile
total_icache_access       110562336 # total number accesses of icache
total_dcache_access        59887936 # total number accesses of dcache
total_dcache2_access        4490591 # total number accesses of dcache2
total_alu_access           97913128 # total number accesses of alu
total_resultbus_access    134846153 # total number accesses of resultbus
avg_rename_access            2.2225 # avg number accesses of rename unit
avg_bpred_access             0.0000 # avg number accesses of bpred unit
avg_window_access           10.0638 # avg number accesses of instruction window
avg_lsq_access               1.3315 # avg number accesses of lsq
avg_regfile_access           3.7035 # avg number accesses of arch. regfile
avg_icache_access            2.4572 # avg number accesses of icache
avg_dcache_access            1.3310 # avg number accesses of dcache
avg_dcache2_access           0.0998 # avg number accesses of dcache2
avg_alu_access               2.1761 # avg number accesses of alu
avg_resultbus_access         2.9969 # avg number accesses of resultbus
max_rename_access                 4 # max number accesses of rename unit
max_bpred_access                  0 # max number accesses of bpred unit
max_window_access                17 # max number accesses of instruction window
max_lsq_access                    5 # max number accesses of load/store queue
max_regfile_access               12 # max number accesses of arch. regfile
max_icache_access                 4 # max number accesses of icache
max_dcache_access                 6 # max number accesses of dcache
max_dcache2_access                7 # max number accesses of dcache2
max_alu_access                    4 # max number accesses of alu
max_resultbus_access              8 # max number accesses of resultbus
max_cycle_power_cc1         99.7355 # maximum cycle power usage of cc1
max_cycle_power_cc2         41.5955 # maximum cycle power usage of cc2
max_cycle_power_cc3         48.0389 # maximum cycle power usage of cc3
sim_invalid_addrs                 0 # total non-speculative bogus addresses seen (debug var)
ld_text_base           0x0120000000 # program text (code) segment base
ld_text_size                1990656 # program text (code) size in bytes
ld_data_base           0x0140000000 # program initialized data segment base
ld_data_size                 306320 # program init'ed `.data' and uninit'ed `.bss' size in bytes
ld_stack_base          0x011ff9b000 # program stack segment base (highest address in stack)
ld_stack_size                 16384 # program initial stack size
ld_prog_entry          0x01201cdba8 # program entry point (initial PC)
ld_environ_base        0x011fa84690 # program environment base address address
ld_target_big_endian              0 # target executable endian-ness, non-zero if big endian
mem.page_count                23924 # total number of pages allocated
mem.page_mem                191392k # total size of memory pages allocated
mem.ptab_misses               30117 # total first level page table misses
mem.ptab_accesses        1517284768 # total page table accesses
mem.ptab_miss_rate           0.0000 # first level page table miss rate

