sim-outorder: SimpleScalar/Alpha Tool Set version 3.0 of August, 2003.
Copyright (c) 1994-2003 by Todd M. Austin, Ph.D. and SimpleScalar, LLC.
All Rights Reserved. This version of SimpleScalar is licensed for academic
non-commercial use.  No portion of this work may be used by any commercial
entity, or for any commercial purpose, without the prior written permission
of SimpleScalar, LLC (info@simplescalar.com).


Processor Parameters:
Issue Width: 4
Window Size: 16
Number of Virtual Registers: 32
Number of Physical Registers: 16
Datapath Width: 64
Total Power Consumption: 130.433
Branch Predictor Power Consumption: 2.84969  (2.22%)
 branch target buffer power (W): 2.49493
 local predict power (W): 0.0879711
 global predict power (W): 0.0996078
 chooser power (W): 0.0702439
 RAS power (W): 0.0969383
Rename Logic Power Consumption: 0.417965  (0.325%)
 Instruction Decode Power (W): 0.0159915
 RAT decode_power (W): 0.113514
 RAT wordline_power (W): 0.0307815
 RAT bitline_power (W): 0.246771
 DCL Comparators (W): 0.0109075
Instruction Window Power Consumption: 2.20432  (1.72%)
 tagdrive (W): 0.0943488
 tagmatch (W): 0.033695
 Selection Logic (W): 0.0134217
 decode_power (W): 0.0532503
 wordline_power (W): 0.0844643
 bitline_power (W): 1.92514
Load/Store Queue Power Consumption: 6.38923  (4.97%)
 tagdrive (W): 2.22773
 tagmatch (W): 0.482855
 decode_power (W): 0.0319831
 wordline_power (W): 0.139808
 bitline_power (W): 3.50685
Arch. Register File Power Consumption: 3.57247  (2.78%)
 decode_power (W): 0.113514
 wordline_power (W): 0.0844643
 bitline_power (W): 3.37449
Result Bus Power Consumption: 4.18077  (3.26%)
Total Clock Power: 39.046  (30.4%)
Int ALU Power: 9.32026  (7.26%)
FP ALU Power: 28.5621  (22.2%)
Instruction Cache Power Consumption: 2.76773  (2.15%)
 decode_power (W): 0.151353
 wordline_power (W): 0.180479
 bitline_power (W): 1.42251
 senseamp_power (W): 0.768
 tagarray_power (W): 0.245382
Itlb_power (W): 0.264834 (0.206%)
Data Cache Power Consumption: 22.1418  (17.2%)
 decode_power (W): 1.21082
 wordline_power (W): 1.44383
 bitline_power (W): 11.3801
 senseamp_power (W): 6.144
 tagarray_power (W): 1.96306
Dtlb_power (W): 3.61295 (2.81%)
Level 2 Cache Power Consumption: 3.10298 (2.42%)
 decode_power (W): 0.19487
 wordline_power (W): 0.0430878
 bitline_power (W): 1.77274
 senseamp_power (W): 0.192
 tagarray_power (W): 0.900275
sim: loading EIO file: ../benchmarks/253.perlbmk.makerand-ref.eio.gz
sim: command line: ./sim-outorder -config ../configs/current.config ../benchmarks/253.perlbmk.makerand-ref.eio.gz 

sim: simulation started @ Sun Nov 22 21:53:02 2015, options follow:

sim-outorder: This simulator implements a very detailed out-of-order issue
superscalar processor with a two-level memory system and speculative
execution support.  This simulator is a performance simulator, tracking the
latency of all pipeline operations.

# -config                     # load configuration from a file
# -dumpconfig                 # dump configuration to a file
# -h                    false # print help message    
# -v                    false # verbose operation     
# -d                    false # enable debug message  
# -i                    false # start in Dlite debugger
-seed                       1 # random number generator seed (0 for timer seed)
# -q                    false # initialize and terminate immediately
# -chkpt               <null> # restore EIO trace execution from <fname>
# -redir:sim     ../results/max_num_fus/253.perlbmk.makerand-ref.eio.gz.out # redirect simulator output to file (non-interactive only)
# -redir:prog       /dev/null # redirect simulated program output to file
-nice                       0 # simulator scheduling priority
-freq            600000000.0000 # frequency             
-max:inst           100000000 # maximum number of inst's to execute
-fastfwd                    0 # number of insts skipped before timing starts
# -ptrace              <null> # generate pipetrace, i.e., <fname|stdout|stderr> <range>
-fetch:ifqsize              4 # instruction fetch queue size (in insts)
-fetch:mplat                3 # extra branch mis-prediction latency
-fetch:speed                1 # speed of front-end of machine relative to execution core
-bpred                perfect # branch predictor type {nottaken|taken|perfect|bimod|2lev|comb}
-bpred:bimod     2048 # bimodal predictor config (<table size>)
-bpred:2lev      1 1024 8 0 # 2-level predictor config (<l1size> <l2size> <hist_size> <xor>)
-bpred:comb      1024 # combining predictor config (<meta_table_size>)
-bpred:ras                  8 # return address stack size (0 for no return stack)
-bpred:btb       512 4 # BTB config (<num_sets> <associativity>)
# -bpred:spec_update       <null> # speculative predictors update in {ID|WB} (default non-spec)
-decode:width               4 # instruction decode B/W (insts/cycle)
-issue:width                4 # instruction issue B/W (insts/cycle)
-issue:inorder          false # run pipeline with in-order issue
-issue:wrongpath         true # issue instructions down wrong execution paths
-commit:width               4 # instruction commit B/W (insts/cycle)
-ruu:size                  16 # register update unit (RUU) size
-lsq:size                   8 # load/store queue (LSQ) size
-cache:dl1       dl1:32:64:8:f # l1 data cache config, i.e., {<config>|none}
-cache:dl1lat               1 # l1 data cache hit latency (in cycles)
-cache:dl2       dl2:256:64:8:f # l2 data cache config, i.e., {<config>|none}
-cache:dl2lat               2 # l2 data cache hit latency (in cycles)
-cache:il1       il1:32:64:8:f # l1 inst cache config, i.e., {<config>|dl1|dl2|none}
-cache:il1lat               1 # l1 instruction cache hit latency (in cycles)
-cache:il2                dl2 # l2 instruction cache config, i.e., {<config>|dl2|none}
-cache:il2lat               2 # l2 instruction cache hit latency (in cycles)
-cache:flush            false # flush caches on system calls
-cache:icompress        false # convert 64-bit inst addresses to 32-bit inst equivalents
-mem:lat         18 1 # memory access latency (<first_chunk> <inter_chunk>)
-mem:width                  8 # memory access bus width (in bytes)
-tlb:itlb        itlb:16:4096:4:l # instruction TLB config, i.e., {<config>|none}
-tlb:dtlb        dtlb:32:4096:4:l # data TLB config, i.e., {<config>|none}
-tlb:lat                   30 # inst/data TLB miss latency (in cycles)
-res:ialu                   8 # total number of integer ALU's available
-res:imult                  8 # total number of integer multiplier/dividers available
-res:memport                8 # total number of memory system ports available (to CPU)
-res:fpalu                  8 # total number of floating point ALU's available
-res:fpmult                 8 # total number of floating point multiplier/dividers available
# -pcstat              <null> # profile stat(s) against text addr's (mult uses ok)
-bugcompat              false # operate in backward-compatible bugs mode (for testing only)

  Pipetrace range arguments are formatted as follows:

    {{@|#}<start>}:{{@|#|+}<end>}

  Both ends of the range are optional, if neither are specified, the entire
  execution is traced.  Ranges that start with a `@' designate an address
  range to be traced, those that start with an `#' designate a cycle count
  range.  All other range values represent an instruction count range.  The
  second argument, if specified with a `+', indicates a value relative
  to the first argument, e.g., 1000:+100 == 1000:1100.  Program symbols may
  be used in all contexts.

    Examples:   -ptrace FOO.trc #0:#1000
                -ptrace BAR.trc @2000:
                -ptrace BLAH.trc :1500
                -ptrace UXXE.trc :
                -ptrace FOOBAR.trc @main:+278

  Branch predictor configuration examples for 2-level predictor:
    Configurations:   N, M, W, X
      N   # entries in first level (# of shift register(s))
      W   width of shift register(s)
      M   # entries in 2nd level (# of counters, or other FSM)
      X   (yes-1/no-0) xor history and address for 2nd level index
    Sample predictors:
      GAg     : 1, W, 2^W, 0
      GAp     : 1, W, M (M > 2^W), 0
      PAg     : N, W, 2^W, 0
      PAp     : N, W, M (M == 2^(N+W)), 0
      gshare  : 1, W, 2^W, 1
  Predictor `comb' combines a bimodal and a 2-level predictor.

  The cache config parameter <config> has the following format:

    <name>:<nsets>:<bsize>:<assoc>:<repl>

    <name>   - name of the cache being defined
    <nsets>  - number of sets in the cache
    <bsize>  - block size of the cache
    <assoc>  - associativity of the cache
    <repl>   - block replacement strategy, 'l'-LRU, 'f'-FIFO, 'r'-random

    Examples:   -cache:dl1 dl1:4096:32:1:l
                -dtlb dtlb:128:4096:32:r

  Cache levels can be unified by pointing a level of the instruction cache
  hierarchy at the data cache hiearchy using the "dl1" and "dl2" cache
  configuration arguments.  Most sensible combinations are supported, e.g.,

    A unified l2 cache (il2 is pointed at dl2):
      -cache:il1 il1:128:64:1:l -cache:il2 dl2
      -cache:dl1 dl1:256:32:1:l -cache:dl2 ul2:1024:64:2:l

    Or, a fully unified cache hierarchy (il1 pointed at dl1):
      -cache:il1 dl1
      -cache:dl1 ul1:256:32:1:l -cache:dl2 ul2:1024:64:2:l



sim: ** starting performance simulation **

sim: ** simulation statistics **
sim_num_insn              100000000 # total number of instructions committed
sim_num_refs               40095830 # total number of loads and stores committed
sim_num_loads              29946759 # total number of loads committed
sim_num_stores         10149071.0000 # total number of stores committed
sim_num_branches           13420683 # total number of branches committed
sim_elapsed_time                102 # total simulation time in seconds
sim_inst_rate           980392.1569 # simulation speed (in insts/sec)
sim_total_insn            100000000 # total number of instructions executed
sim_total_refs             40095830 # total number of loads and stores executed
sim_total_loads            29946759 # total number of loads executed
sim_total_stores       10149071.0000 # total number of stores executed
sim_total_branches         13420683 # total number of branches executed
sim_cycle                  45520159 # total simulation time in cycles
sim_IPC                      2.1968 # instructions per cycle
sim_CPI                      0.4552 # cycles per instruction
sim_exec_BW                  2.1968 # total instructions (mis-spec + committed) per cycle
sim_IPB                      7.4512 # instruction per branch
IFQ_count                 181255621 # cumulative IFQ occupancy
IFQ_fcount                 45309914 # cumulative IFQ full count
ifq_occupancy                3.9819 # avg IFQ occupancy (insn's)
ifq_rate                     2.1968 # avg IFQ dispatch rate (insn/cycle)
ifq_latency                  1.8126 # avg IFQ occupant latency (cycle's)
ifq_full                     0.9954 # fraction of time (cycle's) IFQ was full
RUU_count                 637142938 # cumulative RUU occupancy
RUU_fcount                 18812714 # cumulative RUU full count
ruu_occupancy               13.9969 # avg RUU occupancy (insn's)
ruu_rate                     2.1968 # avg RUU dispatch rate (insn/cycle)
ruu_latency                  6.3714 # avg RUU occupant latency (cycle's)
ruu_full                     0.4133 # fraction of time (cycle's) RUU was full
LSQ_count                 237127391 # cumulative LSQ occupancy
LSQ_fcount                 12688242 # cumulative LSQ full count
lsq_occupancy                5.2093 # avg LSQ occupancy (insn's)
lsq_rate                     2.1968 # avg LSQ dispatch rate (insn/cycle)
lsq_latency                  2.3713 # avg LSQ occupant latency (cycle's)
lsq_full                     0.2787 # fraction of time (cycle's) LSQ was full
sim_slip                 1014366043 # total number of slip cycles
avg_sim_slip                10.1437 # the average slip between issue and retirement
il1.accesses              117295418 # total number of accesses
il1.hits                  117279690 # total number of hits
il1.misses                    15728 # total number of misses
il1.replacements              15483 # total number of replacements
il1.writebacks                    0 # total number of writebacks
il1.invalidations                 0 # total number of invalidations
il1.miss_rate                0.0001 # miss rate (i.e., misses/ref)
il1.repl_rate                0.0001 # replacement rate (i.e., repls/ref)
il1.wb_rate                  0.0000 # writeback rate (i.e., wrbks/ref)
il1.inv_rate                 0.0000 # invalidation rate (i.e., invs/ref)
dl1.accesses               38959852 # total number of accesses
dl1.hits                   38867212 # total number of hits
dl1.misses                    92640 # total number of misses
dl1.replacements              92384 # total number of replacements
dl1.writebacks                 7451 # total number of writebacks
dl1.invalidations                 0 # total number of invalidations
dl1.miss_rate                0.0024 # miss rate (i.e., misses/ref)
dl1.repl_rate                0.0024 # replacement rate (i.e., repls/ref)
dl1.wb_rate                  0.0002 # writeback rate (i.e., wrbks/ref)
dl1.inv_rate                 0.0000 # invalidation rate (i.e., invs/ref)
dl2.accesses                 115819 # total number of accesses
dl2.hits                      51160 # total number of hits
dl2.misses                    64659 # total number of misses
dl2.replacements              62611 # total number of replacements
dl2.writebacks                 1383 # total number of writebacks
dl2.invalidations                 0 # total number of invalidations
dl2.miss_rate                0.5583 # miss rate (i.e., misses/ref)
dl2.repl_rate                0.5406 # replacement rate (i.e., repls/ref)
dl2.wb_rate                  0.0119 # writeback rate (i.e., wrbks/ref)
dl2.inv_rate                 0.0000 # invalidation rate (i.e., invs/ref)
itlb.accesses             117295418 # total number of accesses
itlb.hits                 117295388 # total number of hits
itlb.misses                      30 # total number of misses
itlb.replacements                 0 # total number of replacements
itlb.writebacks                   0 # total number of writebacks
itlb.invalidations                0 # total number of invalidations
itlb.miss_rate               0.0000 # miss rate (i.e., misses/ref)
itlb.repl_rate               0.0000 # replacement rate (i.e., repls/ref)
itlb.wb_rate                 0.0000 # writeback rate (i.e., wrbks/ref)
itlb.inv_rate                0.0000 # invalidation rate (i.e., invs/ref)
dtlb.accesses              40095830 # total number of accesses
dtlb.hits                  40063873 # total number of hits
dtlb.misses                   31957 # total number of misses
dtlb.replacements             31829 # total number of replacements
dtlb.writebacks                   0 # total number of writebacks
dtlb.invalidations                0 # total number of invalidations
dtlb.miss_rate               0.0008 # miss rate (i.e., misses/ref)
dtlb.repl_rate               0.0008 # replacement rate (i.e., repls/ref)
dtlb.wb_rate                 0.0000 # writeback rate (i.e., wrbks/ref)
dtlb.inv_rate                0.0000 # invalidation rate (i.e., invs/ref)
rename_power           19025855.4096 # total power usage of rename unit
bpred_power            129718294.1423 # total power usage of bpred unit
window_power           100340970.3816 # total power usage of instruction window
lsq_power              290838840.7969 # total power usage of load/store queue
regfile_power          162619498.2575 # total power usage of arch. regfile
icache_power           138042752.5295 # total power usage of icache
dcache_power           1172361823.8645 # total power usage of dcache
dcache2_power          141247995.9456 # total power usage of dcache2
alu_power              1724410633.8682 # total power usage of alu
falu_power             1300150874.2536 # total power usage of falu
resultbus_power        190309531.7580 # total power usage of resultbus
clock_power            1777382190.5295 # total power usage of clock
avg_rename_power             0.4180 # avg power usage of rename unit
avg_bpred_power              2.8497 # avg power usage of bpred unit
avg_window_power             2.2043 # avg power usage of instruction window
avg_lsq_power                6.3892 # avg power usage of lsq
avg_regfile_power            3.5725 # avg power usage of arch. regfile
avg_icache_power             3.0326 # avg power usage of icache
avg_dcache_power            25.7548 # avg power usage of dcache
avg_dcache2_power            3.1030 # avg power usage of dcache2
avg_alu_power               37.8824 # avg power usage of alu
avg_falu_power              28.5621 # avg power usage of falu
avg_resultbus_power          4.1808 # avg power usage of resultbus
avg_clock_power             39.0460 # avg power usage of clock
fetch_stage_power      267761046.6718 # total power usage of fetch stage
dispatch_stage_power   19025855.4096 # total power usage of dispatch stage
issue_stage_power      3619509796.6148 # total power usage of issue stage
avg_fetch_power              5.8823 # average power of fetch unit per cycle
avg_dispatch_power           0.4180 # average power of dispatch unit per cycle
avg_issue_power             79.5144 # average power of issue unit per cycle
total_power            5846298387.4831 # total power per cycle
avg_total_power_cycle      128.4332 # average total power per cycle
avg_total_power_cycle_nofp_nod2      96.7681 # average total power per cycle
avg_total_power_insn        58.4630 # average total power per insn
avg_total_power_insn_nofp_nod2      44.0490 # average total power per insn
rename_power_cc1       16665193.8644 # total power usage of rename unit_cc1
bpred_power_cc1              0.0000 # total power usage of bpred unit_cc1
window_power_cc1       95223121.0598 # total power usage of instruction window_cc1
lsq_power_cc1          85034704.3110 # total power usage of lsq_cc1
regfile_power_cc1      130043321.0609 # total power usage of arch. regfile_cc1
icache_power_cc1       120944901.1939 # total power usage of icache_cc1
dcache_power_cc1       621259145.3555 # total power usage of dcache_cc1
dcache2_power_cc1       333725.1518 # total power usage of dcache2_cc1
alu_power_cc1          425132022.1796 # total power usage of alu_cc1
resultbus_power_cc1    171209752.1572 # total power usage of resultbus_cc1
clock_power_cc1        752800334.1467 # total power usage of clock_cc1
avg_rename_power_cc1         0.3661 # avg power usage of rename unit_cc1
avg_bpred_power_cc1          0.0000 # avg power usage of bpred unit_cc1
avg_window_power_cc1         2.0919 # avg power usage of instruction window_cc1
avg_lsq_power_cc1            1.8681 # avg power usage of lsq_cc1
avg_regfile_power_cc1        2.8568 # avg power usage of arch. regfile_cc1
avg_icache_power_cc1         2.6570 # avg power usage of icache_cc1
avg_dcache_power_cc1        13.6480 # avg power usage of dcache_cc1
avg_dcache2_power_cc1        0.0073 # avg power usage of dcache2_cc1
avg_alu_power_cc1            9.3394 # avg power usage of alu_cc1
avg_resultbus_power_cc1       3.7612 # avg power usage of resultbus_cc1
avg_clock_power_cc1         16.5377 # avg power usage of clock_cc1
fetch_stage_power_cc1  120944901.1939 # total power usage of fetch stage_cc1
dispatch_stage_power_cc1 16665193.8644 # total power usage of dispatch stage_cc1
issue_stage_power_cc1  1398192470.2150 # total power usage of issue stage_cc1
avg_fetch_power_cc1          2.6570 # average power of fetch unit per cycle_cc1
avg_dispatch_power_cc1       0.3661 # average power of dispatch unit per cycle_cc1
avg_issue_power_cc1         30.7159 # average power of issue unit per cycle_cc1
total_power_cycle_cc1  2418646220.4808 # total power per cycle_cc1
avg_total_power_cycle_cc1      53.1335 # average total power per cycle_cc1
avg_total_power_insn_cc1      24.1865 # average total power per insn_cc1
rename_power_cc2       10449137.1668 # total power usage of rename unit_cc2
bpred_power_cc2              0.0000 # total power usage of bpred unit_cc2
window_power_cc2       82581393.1016 # total power usage of instruction window_cc2
lsq_power_cc2          14675812.8194 # total power usage of lsq_cc2
regfile_power_cc2      34657552.3857 # total power usage of arch. regfile_cc2
icache_power_cc2       120944901.1939 # total power usage of icache_cc2
dcache_power_cc2       125425317.4141 # total power usage of dcache_cc2
dcache2_power_cc2        44922.9583 # total power usage of dcache2_cc2
alu_power_cc2          120826282.3573 # total power usage of alu_cc2
resultbus_power_cc2    114180288.6284 # total power usage of resultbus_cc2
clock_power_cc2        281917154.3961 # total power usage of clock_cc2
avg_rename_power_cc2         0.2295 # avg power usage of rename unit_cc2
avg_bpred_power_cc2          0.0000 # avg power usage of bpred unit_cc2
avg_window_power_cc2         1.8142 # avg power usage of instruction window_cc2
avg_lsq_power_cc2            0.3224 # avg power usage of instruction lsq_cc2
avg_regfile_power_cc2        0.7614 # avg power usage of arch. regfile_cc2
avg_icache_power_cc2         2.6570 # avg power usage of icache_cc2
avg_dcache_power_cc2         2.7554 # avg power usage of dcache_cc2
avg_dcache2_power_cc2        0.0010 # avg power usage of dcache2_cc2
avg_alu_power_cc2            2.6543 # avg power usage of alu_cc2
avg_resultbus_power_cc2       2.5083 # avg power usage of resultbus_cc2
avg_clock_power_cc2          6.1932 # avg power usage of clock_cc2
fetch_stage_power_cc2  120944901.1939 # total power usage of fetch stage_cc2
dispatch_stage_power_cc2 10449137.1668 # total power usage of dispatch stage_cc2
issue_stage_power_cc2  457734017.2791 # total power usage of issue stage_cc2
avg_fetch_power_cc2          2.6570 # average power of fetch unit per cycle_cc2
avg_dispatch_power_cc2       0.2295 # average power of dispatch unit per cycle_cc2
avg_issue_power_cc2         10.0556 # average power of issue unit per cycle_cc2
total_power_cycle_cc2  905702762.4216 # total power per cycle_cc2
avg_total_power_cycle_cc2      19.8967 # average total power per cycle_cc2
avg_total_power_insn_cc2       9.0570 # average total power per insn_cc2
rename_power_cc3       10685203.3202 # total power usage of rename unit_cc3
bpred_power_cc3        12971829.4279 # total power usage of bpred unit_cc3
window_power_cc3       82891248.1681 # total power usage of instruction window_cc3
lsq_power_cc3          34878002.5273 # total power usage of lsq_cc3
regfile_power_cc3      36264960.4893 # total power usage of arch. regfile_cc3
icache_power_cc3       122654686.3174 # total power usage of icache_cc3
dcache_power_cc3       180535585.2741 # total power usage of dcache_cc3
dcache2_power_cc3      14136350.0505 # total power usage of dcache2_cc3
alu_power_cc3          250754143.1430 # total power usage of alu_cc3
resultbus_power_cc3    114984135.8016 # total power usage of resultbus_cc3
clock_power_cc3        382867410.8174 # total power usage of clock_cc3
avg_rename_power_cc3         0.2347 # avg power usage of rename unit_cc3
avg_bpred_power_cc3          0.2850 # avg power usage of bpred unit_cc3
avg_window_power_cc3         1.8210 # avg power usage of instruction window_cc3
avg_lsq_power_cc3            0.7662 # avg power usage of instruction lsq_cc3
avg_regfile_power_cc3        0.7967 # avg power usage of arch. regfile_cc3
avg_icache_power_cc3         2.6945 # avg power usage of icache_cc3
avg_dcache_power_cc3         3.9661 # avg power usage of dcache_cc3
avg_dcache2_power_cc3        0.3106 # avg power usage of dcache2_cc3
avg_alu_power_cc3            5.5086 # avg power usage of alu_cc3
avg_resultbus_power_cc3       2.5260 # avg power usage of resultbus_cc3
avg_clock_power_cc3          8.4109 # avg power usage of clock_cc3
fetch_stage_power_cc3  135626515.7453 # total power usage of fetch stage_cc3
dispatch_stage_power_cc3 10685203.3202 # total power usage of dispatch stage_cc3
issue_stage_power_cc3  678179464.9646 # total power usage of issue stage_cc3
avg_fetch_power_cc3          2.9795 # average power of fetch unit per cycle_cc3
avg_dispatch_power_cc3       0.2347 # average power of dispatch unit per cycle_cc3
avg_issue_power_cc3         14.8984 # average power of issue unit per cycle_cc3
total_power_cycle_cc3  1243623555.3367 # total power per cycle_cc3
avg_total_power_cycle_cc3      27.3203 # average total power per cycle_cc3
avg_total_power_insn_cc3      12.4362 # average total power per insn_cc3
total_rename_access       100000000 # total number accesses of rename unit
total_bpred_access                0 # total number accesses of bpred unit
total_window_access       382928339 # total number accesses of instruction window
total_lsq_access           41231808 # total number accesses of load/store queue
total_regfile_access      131537039 # total number accesses of arch. regfile
total_icache_access       117295418 # total number accesses of icache
total_dcache_access        38959852 # total number accesses of dcache
total_dcache2_access         115819 # total number accesses of dcache2
total_alu_access           99999387 # total number accesses of alu
total_resultbus_access    116526065 # total number accesses of resultbus
avg_rename_access            2.1968 # avg number accesses of rename unit
avg_bpred_access             0.0000 # avg number accesses of bpred unit
avg_window_access            8.4123 # avg number accesses of instruction window
avg_lsq_access               0.9058 # avg number accesses of lsq
avg_regfile_access           2.8896 # avg number accesses of arch. regfile
avg_icache_access            2.5768 # avg number accesses of icache
avg_dcache_access            0.8559 # avg number accesses of dcache
avg_dcache2_access           0.0025 # avg number accesses of dcache2
avg_alu_access               2.1968 # avg number accesses of alu
avg_resultbus_access         2.5599 # avg number accesses of resultbus
max_rename_access                 4 # max number accesses of rename unit
max_bpred_access                  0 # max number accesses of bpred unit
max_window_access                16 # max number accesses of instruction window
max_lsq_access                    5 # max number accesses of load/store queue
max_regfile_access               12 # max number accesses of arch. regfile
max_icache_access                 4 # max number accesses of icache
max_dcache_access                 6 # max number accesses of dcache
max_dcache2_access                5 # max number accesses of dcache2
max_alu_access                    4 # max number accesses of alu
max_resultbus_access              6 # max number accesses of resultbus
max_cycle_power_cc1        100.0198 # maximum cycle power usage of cc1
max_cycle_power_cc2         38.7133 # maximum cycle power usage of cc2
max_cycle_power_cc3         45.3700 # maximum cycle power usage of cc3
sim_invalid_addrs                 0 # total non-speculative bogus addresses seen (debug var)
ld_text_base           0x0120000000 # program text (code) segment base
ld_text_size                 876544 # program text (code) size in bytes
ld_data_base           0x0140000000 # program initialized data segment base
ld_data_size                 131616 # program init'ed `.data' and uninit'ed `.bss' size in bytes
ld_stack_base          0x011ff9b000 # program stack segment base (highest address in stack)
ld_stack_size                 16384 # program initial stack size
ld_prog_entry          0x0120067d78 # program entry point (initial PC)
ld_environ_base        0x011ff96c80 # program environment base address address
ld_target_big_endian              0 # target executable endian-ness, non-zero if big endian
mem.page_count                 1161 # total number of pages allocated
mem.page_mem                  9288k # total size of memory pages allocated
mem.ptab_misses                2407 # total first level page table misses
mem.ptab_accesses         836022084 # total page table accesses
mem.ptab_miss_rate           0.0000 # first level page table miss rate

