sim-outorder: SimpleScalar/Alpha Tool Set version 3.0 of August, 2003.
Copyright (c) 1994-2003 by Todd M. Austin, Ph.D. and SimpleScalar, LLC.
All Rights Reserved. This version of SimpleScalar is licensed for academic
non-commercial use.  No portion of this work may be used by any commercial
entity, or for any commercial purpose, without the prior written permission
of SimpleScalar, LLC (info@simplescalar.com).


Processor Parameters:
Issue Width: 4
Window Size: 256
Number of Virtual Registers: 32
Number of Physical Registers: 256
Datapath Width: 64
Total Power Consumption: 100.49
Branch Predictor Power Consumption: 3.33649  (3.39%)
 branch target buffer power (W): 2.49493
 local predict power (W): 0.574771
 global predict power (W): 0.0996078
 chooser power (W): 0.0702439
 RAS power (W): 0.0969383
Rename Logic Power Consumption: 0.683325  (0.694%)
 Instruction Decode Power (W): 0.0159915
 RAT decode_power (W): 0.113514
 RAT wordline_power (W): 0.0493708
 RAT bitline_power (W): 0.493541
 DCL Comparators (W): 0.0109075
Instruction Window Power Consumption: 16.2962  (16.5%)
 tagdrive (W): 2.10657
 tagmatch (W): 0.961505
 Selection Logic (W): 0.228169
 decode_power (W): 1.16922
 wordline_power (W): 0.0844643
 bitline_power (W): 11.7463
Load/Store Queue Power Consumption: 2.73089  (2.77%)
 tagdrive (W): 0.457232
 tagmatch (W): 0.100774
 decode_power (W): 0.00799577
 wordline_power (W): 0.0150119
 bitline_power (W): 2.14988
Arch. Register File Power Consumption: 3.57247  (3.63%)
 decode_power (W): 0.113514
 wordline_power (W): 0.0844643
 bitline_power (W): 3.37449
Result Bus Power Consumption: 9.01293  (9.15%)
Total Clock Power: 31.3421  (31.8%)
Int ALU Power: 4.66013  (4.73%)
FP ALU Power: 14.281  (14.5%)
Instruction Cache Power Consumption: 2.76773  (2.81%)
 decode_power (W): 0.151353
 wordline_power (W): 0.180479
 bitline_power (W): 1.42251
 senseamp_power (W): 0.768
 tagarray_power (W): 0.245382
Itlb_power (W): 0.264834 (0.269%)
Data Cache Power Consumption: 5.53546  (5.62%)
 decode_power (W): 0.302705
 wordline_power (W): 0.360958
 bitline_power (W): 2.84503
 senseamp_power (W): 1.536
 tagarray_power (W): 0.490764
Dtlb_power (W): 0.903238 (0.917%)
Level 2 Cache Power Consumption: 3.10298 (3.15%)
 decode_power (W): 0.19487
 wordline_power (W): 0.0430878
 bitline_power (W): 1.77274
 senseamp_power (W): 0.192
 tagarray_power (W): 0.900275
sim: loading EIO file: ../benchmarks/176.gcc.00-scilab-ref.eio.gz
sim: command line: ./sim-outorder -config ../configs/current.config ../benchmarks/176.gcc.00-scilab-ref.eio.gz 

sim: simulation started @ Tue Nov 24 10:20:07 2015, options follow:

sim-outorder: This simulator implements a very detailed out-of-order issue
superscalar processor with a two-level memory system and speculative
execution support.  This simulator is a performance simulator, tracking the
latency of all pipeline operations.

# -config                     # load configuration from a file
# -dumpconfig                 # dump configuration to a file
# -h                    false # print help message    
# -v                    false # verbose operation     
# -d                    false # enable debug message  
# -i                    false # start in Dlite debugger
-seed                       1 # random number generator seed (0 for timer seed)
# -q                    false # initialize and terminate immediately
# -chkpt               <null> # restore EIO trace execution from <fname>
# -redir:sim     ../results/16_15_ruu/176.gcc.00-scilab-ref.eio.gz.out # redirect simulator output to file (non-interactive only)
# -redir:prog       /dev/null # redirect simulated program output to file
-nice                       0 # simulator scheduling priority
-freq            600000000.0000 # frequency             
-max:inst           100000000 # maximum number of inst's to execute
-fastfwd                    0 # number of insts skipped before timing starts
# -ptrace              <null> # generate pipetrace, i.e., <fname|stdout|stderr> <range>
-fetch:ifqsize              4 # instruction fetch queue size (in insts)
-fetch:mplat               15 # extra branch mis-prediction latency
-fetch:speed                1 # speed of front-end of machine relative to execution core
-bpred                perfect # branch predictor type {nottaken|taken|perfect|bimod|2lev|comb}
-bpred:bimod     2048 # bimodal predictor config (<table size>)
-bpred:2lev      1 16384 4 0 # 2-level predictor config (<l1size> <l2size> <hist_size> <xor>)
-bpred:comb      1024 # combining predictor config (<meta_table_size>)
-bpred:ras                  8 # return address stack size (0 for no return stack)
-bpred:btb       512 4 # BTB config (<num_sets> <associativity>)
# -bpred:spec_update       <null> # speculative predictors update in {ID|WB} (default non-spec)
-decode:width               4 # instruction decode B/W (insts/cycle)
-issue:width                4 # instruction issue B/W (insts/cycle)
-issue:inorder          false # run pipeline with in-order issue
-issue:wrongpath         true # issue instructions down wrong execution paths
-commit:width               4 # instruction commit B/W (insts/cycle)
-ruu:size                 256 # register update unit (RUU) size
-lsq:size                   8 # load/store queue (LSQ) size
-cache:dl1       dl1:32:64:8:f # l1 data cache config, i.e., {<config>|none}
-cache:dl1lat               1 # l1 data cache hit latency (in cycles)
-cache:dl2       dl2:256:64:8:f # l2 data cache config, i.e., {<config>|none}
-cache:dl2lat               2 # l2 data cache hit latency (in cycles)
-cache:il1       il1:32:64:8:f # l1 inst cache config, i.e., {<config>|dl1|dl2|none}
-cache:il1lat               1 # l1 instruction cache hit latency (in cycles)
-cache:il2                dl2 # l2 instruction cache config, i.e., {<config>|dl2|none}
-cache:il2lat               2 # l2 instruction cache hit latency (in cycles)
-cache:flush            false # flush caches on system calls
-cache:icompress        false # convert 64-bit inst addresses to 32-bit inst equivalents
-mem:lat         103 1 # memory access latency (<first_chunk> <inter_chunk>)
-mem:width                  8 # memory access bus width (in bytes)
-tlb:itlb        itlb:16:4096:4:l # instruction TLB config, i.e., {<config>|none}
-tlb:dtlb        dtlb:32:4096:4:l # data TLB config, i.e., {<config>|none}
-tlb:lat                   30 # inst/data TLB miss latency (in cycles)
-res:ialu                   4 # total number of integer ALU's available
-res:imult                  1 # total number of integer multiplier/dividers available
-res:memport                2 # total number of memory system ports available (to CPU)
-res:fpalu                  4 # total number of floating point ALU's available
-res:fpmult                 1 # total number of floating point multiplier/dividers available
# -pcstat              <null> # profile stat(s) against text addr's (mult uses ok)
-bugcompat              false # operate in backward-compatible bugs mode (for testing only)

  Pipetrace range arguments are formatted as follows:

    {{@|#}<start>}:{{@|#|+}<end>}

  Both ends of the range are optional, if neither are specified, the entire
  execution is traced.  Ranges that start with a `@' designate an address
  range to be traced, those that start with an `#' designate a cycle count
  range.  All other range values represent an instruction count range.  The
  second argument, if specified with a `+', indicates a value relative
  to the first argument, e.g., 1000:+100 == 1000:1100.  Program symbols may
  be used in all contexts.

    Examples:   -ptrace FOO.trc #0:#1000
                -ptrace BAR.trc @2000:
                -ptrace BLAH.trc :1500
                -ptrace UXXE.trc :
                -ptrace FOOBAR.trc @main:+278

  Branch predictor configuration examples for 2-level predictor:
    Configurations:   N, M, W, X
      N   # entries in first level (# of shift register(s))
      W   width of shift register(s)
      M   # entries in 2nd level (# of counters, or other FSM)
      X   (yes-1/no-0) xor history and address for 2nd level index
    Sample predictors:
      GAg     : 1, W, 2^W, 0
      GAp     : 1, W, M (M > 2^W), 0
      PAg     : N, W, 2^W, 0
      PAp     : N, W, M (M == 2^(N+W)), 0
      gshare  : 1, W, 2^W, 1
  Predictor `comb' combines a bimodal and a 2-level predictor.

  The cache config parameter <config> has the following format:

    <name>:<nsets>:<bsize>:<assoc>:<repl>

    <name>   - name of the cache being defined
    <nsets>  - number of sets in the cache
    <bsize>  - block size of the cache
    <assoc>  - associativity of the cache
    <repl>   - block replacement strategy, 'l'-LRU, 'f'-FIFO, 'r'-random

    Examples:   -cache:dl1 dl1:4096:32:1:l
                -dtlb dtlb:128:4096:32:r

  Cache levels can be unified by pointing a level of the instruction cache
  hierarchy at the data cache hiearchy using the "dl1" and "dl2" cache
  configuration arguments.  Most sensible combinations are supported, e.g.,

    A unified l2 cache (il2 is pointed at dl2):
      -cache:il1 il1:128:64:1:l -cache:il2 dl2
      -cache:dl1 dl1:256:32:1:l -cache:dl2 ul2:1024:64:2:l

    Or, a fully unified cache hierarchy (il1 pointed at dl1):
      -cache:il1 dl1
      -cache:dl1 ul1:256:32:1:l -cache:dl2 ul2:1024:64:2:l



sim: ** starting performance simulation **

sim: ** simulation statistics **
sim_num_insn              100000002 # total number of instructions committed
sim_num_refs               40836497 # total number of loads and stores committed
sim_num_loads              31266712 # total number of loads committed
sim_num_stores         9569785.0000 # total number of stores committed
sim_num_branches           14837495 # total number of branches committed
sim_elapsed_time                 97 # total simulation time in seconds
sim_inst_rate          1030927.8557 # simulation speed (in insts/sec)
sim_total_insn            100000002 # total number of instructions executed
sim_total_refs             40836497 # total number of loads and stores executed
sim_total_loads            31266712 # total number of loads executed
sim_total_stores       9569785.0000 # total number of stores executed
sim_total_branches         14837495 # total number of branches executed
sim_cycle                  55369263 # total simulation time in cycles
sim_IPC                      1.8061 # instructions per cycle
sim_CPI                      0.5537 # cycles per instruction
sim_exec_BW                  1.8061 # total instructions (mis-spec + committed) per cycle
sim_IPB                      6.7397 # instruction per branch
IFQ_count                 181055972 # cumulative IFQ occupancy
IFQ_fcount                 45008884 # cumulative IFQ full count
ifq_occupancy                3.2700 # avg IFQ occupancy (insn's)
ifq_rate                     1.8061 # avg IFQ dispatch rate (insn/cycle)
ifq_latency                  1.8106 # avg IFQ occupant latency (cycle's)
ifq_full                     0.8129 # fraction of time (cycle's) IFQ was full
RUU_count                 797549924 # cumulative RUU occupancy
RUU_fcount                        0 # cumulative RUU full count
ruu_occupancy               14.4042 # avg RUU occupancy (insn's)
ruu_rate                     1.8061 # avg RUU dispatch rate (insn/cycle)
ruu_latency                  7.9755 # avg RUU occupant latency (cycle's)
ruu_full                     0.0000 # fraction of time (cycle's) RUU was full
LSQ_count                 315716162 # cumulative LSQ occupancy
LSQ_fcount                 22948360 # cumulative LSQ full count
lsq_occupancy                5.7020 # avg LSQ occupancy (insn's)
lsq_rate                     1.8061 # avg LSQ dispatch rate (insn/cycle)
lsq_latency                  3.1572 # avg LSQ occupant latency (cycle's)
lsq_full                     0.4145 # fraction of time (cycle's) LSQ was full
sim_slip                 1254102524 # total number of slip cycles
avg_sim_slip                12.5410 # the average slip between issue and retirement
il1.accesses              116356308 # total number of accesses
il1.hits                  115115189 # total number of hits
il1.misses                  1241119 # total number of misses
il1.replacements            1240863 # total number of replacements
il1.writebacks                    0 # total number of writebacks
il1.invalidations                 0 # total number of invalidations
il1.miss_rate                0.0107 # miss rate (i.e., misses/ref)
il1.repl_rate                0.0107 # replacement rate (i.e., repls/ref)
il1.wb_rate                  0.0000 # writeback rate (i.e., wrbks/ref)
il1.inv_rate                 0.0000 # invalidation rate (i.e., invs/ref)
dl1.accesses               40692450 # total number of accesses
dl1.hits                   40114275 # total number of hits
dl1.misses                   578175 # total number of misses
dl1.replacements             577919 # total number of replacements
dl1.writebacks               443310 # total number of writebacks
dl1.invalidations                 0 # total number of invalidations
dl1.miss_rate                0.0142 # miss rate (i.e., misses/ref)
dl1.repl_rate                0.0142 # replacement rate (i.e., repls/ref)
dl1.wb_rate                  0.0109 # writeback rate (i.e., wrbks/ref)
dl1.inv_rate                 0.0000 # invalidation rate (i.e., invs/ref)
dl2.accesses                2262604 # total number of accesses
dl2.hits                    2028947 # total number of hits
dl2.misses                   233657 # total number of misses
dl2.replacements             231609 # total number of replacements
dl2.writebacks               101830 # total number of writebacks
dl2.invalidations                 0 # total number of invalidations
dl2.miss_rate                0.1033 # miss rate (i.e., misses/ref)
dl2.repl_rate                0.1024 # replacement rate (i.e., repls/ref)
dl2.wb_rate                  0.0450 # writeback rate (i.e., wrbks/ref)
dl2.inv_rate                 0.0000 # invalidation rate (i.e., invs/ref)
itlb.accesses             116356308 # total number of accesses
itlb.hits                 116347106 # total number of hits
itlb.misses                    9202 # total number of misses
itlb.replacements              9138 # total number of replacements
itlb.writebacks                   0 # total number of writebacks
itlb.invalidations                0 # total number of invalidations
itlb.miss_rate               0.0001 # miss rate (i.e., misses/ref)
itlb.repl_rate               0.0001 # replacement rate (i.e., repls/ref)
itlb.wb_rate                 0.0000 # writeback rate (i.e., wrbks/ref)
itlb.inv_rate                0.0000 # invalidation rate (i.e., invs/ref)
dtlb.accesses              40836491 # total number of accesses
dtlb.hits                  40825130 # total number of hits
dtlb.misses                   11361 # total number of misses
dtlb.replacements             11233 # total number of replacements
dtlb.writebacks                   0 # total number of writebacks
dtlb.invalidations                0 # total number of invalidations
dtlb.miss_rate               0.0003 # miss rate (i.e., misses/ref)
dtlb.repl_rate               0.0003 # replacement rate (i.e., repls/ref)
dtlb.wb_rate                 0.0000 # writeback rate (i.e., wrbks/ref)
dtlb.inv_rate                0.0000 # invalidation rate (i.e., invs/ref)
rename_power           37835219.7967 # total power usage of rename unit
bpred_power            184738910.1268 # total power usage of bpred unit
window_power           902309542.8340 # total power usage of instruction window
lsq_power              151207642.5660 # total power usage of load/store queue
regfile_power          197805147.4631 # total power usage of arch. regfile
icache_power           167910781.4992 # total power usage of icache
dcache_power           356505840.4103 # total power usage of dcache
dcache2_power          171809536.8551 # total power usage of dcache2
alu_power              1048758923.9299 # total power usage of alu
falu_power             790730934.1667 # total power usage of falu
resultbus_power        499039081.4783 # total power usage of resultbus
clock_power            1735387649.2403 # total power usage of clock
avg_rename_power             0.6833 # avg power usage of rename unit
avg_bpred_power              3.3365 # avg power usage of bpred unit
avg_window_power            16.2962 # avg power usage of instruction window
avg_lsq_power                2.7309 # avg power usage of lsq
avg_regfile_power            3.5725 # avg power usage of arch. regfile
avg_icache_power             3.0326 # avg power usage of icache
avg_dcache_power             6.4387 # avg power usage of dcache
avg_dcache2_power            3.1030 # avg power usage of dcache2
avg_alu_power               18.9412 # avg power usage of alu
avg_falu_power              14.2810 # avg power usage of falu
avg_resultbus_power          9.0129 # avg power usage of resultbus
avg_clock_power             31.3421 # avg power usage of clock
fetch_stage_power      352649691.6259 # total power usage of fetch stage
dispatch_stage_power   37835219.7967 # total power usage of dispatch stage
issue_stage_power      3129630568.0736 # total power usage of issue stage
avg_fetch_power              6.3691 # average power of fetch unit per cycle
avg_dispatch_power           0.6833 # average power of dispatch unit per cycle
avg_issue_power             56.5229 # average power of issue unit per cycle
total_power            5453308276.1997 # total power per cycle
avg_total_power_cycle       98.4898 # average total power per cycle
avg_total_power_cycle_nofp_nod2      81.1058 # average total power per cycle
avg_total_power_insn        54.5331 # average total power per insn
avg_total_power_insn_nofp_nod2      44.9077 # average total power per insn
rename_power_cc1       22633899.6356 # total power usage of rename unit_cc1
bpred_power_cc1              0.0000 # total power usage of bpred unit_cc1
window_power_cc1       688384475.8765 # total power usage of instruction window_cc1
lsq_power_cc1          26646799.4741 # total power usage of lsq_cc1
regfile_power_cc1      118518785.0876 # total power usage of arch. regfile_cc1
icache_power_cc1       103153466.2956 # total power usage of icache_cc1
dcache_power_cc1       166655599.2455 # total power usage of dcache_cc1
dcache2_power_cc1      5611885.5382 # total power usage of dcache2_cc1
alu_power_cc1          174594578.0756 # total power usage of alu_cc1
resultbus_power_cc1    330922281.3491 # total power usage of resultbus_cc1
clock_power_cc1        885677227.2820 # total power usage of clock_cc1
avg_rename_power_cc1         0.4088 # avg power usage of rename unit_cc1
avg_bpred_power_cc1          0.0000 # avg power usage of bpred unit_cc1
avg_window_power_cc1        12.4326 # avg power usage of instruction window_cc1
avg_lsq_power_cc1            0.4813 # avg power usage of lsq_cc1
avg_regfile_power_cc1        2.1405 # avg power usage of arch. regfile_cc1
avg_icache_power_cc1         1.8630 # avg power usage of icache_cc1
avg_dcache_power_cc1         3.0099 # avg power usage of dcache_cc1
avg_dcache2_power_cc1        0.1014 # avg power usage of dcache2_cc1
avg_alu_power_cc1            3.1533 # avg power usage of alu_cc1
avg_resultbus_power_cc1       5.9766 # avg power usage of resultbus_cc1
avg_clock_power_cc1         15.9958 # avg power usage of clock_cc1
fetch_stage_power_cc1  103153466.2956 # total power usage of fetch stage_cc1
dispatch_stage_power_cc1 22633899.6356 # total power usage of dispatch stage_cc1
issue_stage_power_cc1  1392815619.5589 # total power usage of issue stage_cc1
avg_fetch_power_cc1          1.8630 # average power of fetch unit per cycle_cc1
avg_dispatch_power_cc1       0.4088 # average power of dispatch unit per cycle_cc1
avg_issue_power_cc1         25.1550 # average power of issue unit per cycle_cc1
total_power_cycle_cc1  2522798997.8597 # total power per cycle_cc1
avg_total_power_cycle_cc1      45.5632 # average total power per cycle_cc1
avg_total_power_insn_cc1      25.2280 # average total power per insn_cc1
rename_power_cc2       17083133.5395 # total power usage of rename unit_cc2
bpred_power_cc2              0.0000 # total power usage of bpred unit_cc2
window_power_cc2       611362143.3278 # total power usage of instruction window_cc2
lsq_power_cc2          18427336.9442 # total power usage of lsq_cc2
regfile_power_cc2      38446010.0471 # total power usage of arch. regfile_cc2
icache_power_cc2       103153466.2956 # total power usage of icache_cc2
dcache_power_cc2       131003153.1250 # total power usage of dcache_cc2
dcache2_power_cc2      3510403.8282 # total power usage of dcache2_cc2
alu_power_cc2          116148843.3258 # total power usage of alu_cc2
resultbus_power_cc2    245945591.7912 # total power usage of resultbus_cc2
clock_power_cc2        710532011.0303 # total power usage of clock_cc2
avg_rename_power_cc2         0.3085 # avg power usage of rename unit_cc2
avg_bpred_power_cc2          0.0000 # avg power usage of bpred unit_cc2
avg_window_power_cc2        11.0415 # avg power usage of instruction window_cc2
avg_lsq_power_cc2            0.3328 # avg power usage of instruction lsq_cc2
avg_regfile_power_cc2        0.6944 # avg power usage of arch. regfile_cc2
avg_icache_power_cc2         1.8630 # avg power usage of icache_cc2
avg_dcache_power_cc2         2.3660 # avg power usage of dcache_cc2
avg_dcache2_power_cc2        0.0634 # avg power usage of dcache2_cc2
avg_alu_power_cc2            2.0977 # avg power usage of alu_cc2
avg_resultbus_power_cc2       4.4419 # avg power usage of resultbus_cc2
avg_clock_power_cc2         12.8326 # avg power usage of clock_cc2
fetch_stage_power_cc2  103153466.2956 # total power usage of fetch stage_cc2
dispatch_stage_power_cc2 17083133.5395 # total power usage of dispatch stage_cc2
issue_stage_power_cc2  1126397472.3422 # total power usage of issue stage_cc2
avg_fetch_power_cc2          1.8630 # average power of fetch unit per cycle_cc2
avg_dispatch_power_cc2       0.3085 # average power of dispatch unit per cycle_cc2
avg_issue_power_cc2         20.3434 # average power of issue unit per cycle_cc2
total_power_cycle_cc2  1995612093.2547 # total power per cycle_cc2
avg_total_power_cycle_cc2      36.0419 # average total power per cycle_cc2
avg_total_power_insn_cc2      19.9561 # average total power per insn_cc2
rename_power_cc3       18603265.5519 # total power usage of rename unit_cc3
bpred_power_cc3        18473891.0170 # total power usage of bpred unit_cc3
window_power_cc3       635642275.1134 # total power usage of instruction window_cc3
lsq_power_cc3          30867499.4145 # total power usage of lsq_cc3
regfile_power_cc3      44970062.1860 # total power usage of arch. regfile_cc3
icache_power_cc3       109629197.7685 # total power usage of icache_cc3
dcache_power_cc3       151169247.5037 # total power usage of dcache_cc3
dcache2_power_cc3      20132743.8111 # total power usage of dcache2_cc3
alu_power_cc3          203565277.5379 # total power usage of alu_cc3
resultbus_power_cc3    260557849.7972 # total power usage of resultbus_cc3
clock_power_cc3        796278721.3105 # total power usage of clock_cc3
avg_rename_power_cc3         0.3360 # avg power usage of rename unit_cc3
avg_bpred_power_cc3          0.3336 # avg power usage of bpred unit_cc3
avg_window_power_cc3        11.4801 # avg power usage of instruction window_cc3
avg_lsq_power_cc3            0.5575 # avg power usage of instruction lsq_cc3
avg_regfile_power_cc3        0.8122 # avg power usage of arch. regfile_cc3
avg_icache_power_cc3         1.9800 # avg power usage of icache_cc3
avg_dcache_power_cc3         2.7302 # avg power usage of dcache_cc3
avg_dcache2_power_cc3        0.3636 # avg power usage of dcache2_cc3
avg_alu_power_cc3            3.6765 # avg power usage of alu_cc3
avg_resultbus_power_cc3       4.7058 # avg power usage of resultbus_cc3
avg_clock_power_cc3         14.3812 # avg power usage of clock_cc3
fetch_stage_power_cc3  128103088.7855 # total power usage of fetch stage_cc3
dispatch_stage_power_cc3 18603265.5519 # total power usage of dispatch stage_cc3
issue_stage_power_cc3  1301934893.1779 # total power usage of issue stage_cc3
avg_fetch_power_cc3          2.3136 # average power of fetch unit per cycle_cc3
avg_dispatch_power_cc3       0.3360 # average power of dispatch unit per cycle_cc3
avg_issue_power_cc3         23.5137 # average power of issue unit per cycle_cc3
total_power_cycle_cc3  2289890031.0118 # total power per cycle_cc3
avg_total_power_cycle_cc3      41.3567 # average total power per cycle_cc3
avg_total_power_insn_cc3      22.8989 # average total power per insn_cc3
total_rename_access       100000002 # total number accesses of rename unit
total_bpred_access                0 # total number accesses of bpred unit
total_window_access       394859604 # total number accesses of instruction window
total_lsq_access           40980533 # total number accesses of load/store queue
total_regfile_access      145414522 # total number accesses of arch. regfile
total_icache_access       116356308 # total number accesses of icache
total_dcache_access        40692450 # total number accesses of dcache
total_dcache2_access        2262604 # total number accesses of dcache2
total_alu_access           99645770 # total number accesses of alu
total_resultbus_access    116429208 # total number accesses of resultbus
avg_rename_access            1.8061 # avg number accesses of rename unit
avg_bpred_access             0.0000 # avg number accesses of bpred unit
avg_window_access            7.1314 # avg number accesses of instruction window
avg_lsq_access               0.7401 # avg number accesses of lsq
avg_regfile_access           2.6263 # avg number accesses of arch. regfile
avg_icache_access            2.1015 # avg number accesses of icache
avg_dcache_access            0.7349 # avg number accesses of dcache
avg_dcache2_access           0.0409 # avg number accesses of dcache2
avg_alu_access               1.7997 # avg number accesses of alu
avg_resultbus_access         2.1028 # avg number accesses of resultbus
max_rename_access                 4 # max number accesses of rename unit
max_bpred_access                  0 # max number accesses of bpred unit
max_window_access                18 # max number accesses of instruction window
max_lsq_access                    6 # max number accesses of load/store queue
max_regfile_access               12 # max number accesses of arch. regfile
max_icache_access                 4 # max number accesses of icache
max_dcache_access                 4 # max number accesses of dcache
max_dcache2_access                6 # max number accesses of dcache2
max_alu_access                    4 # max number accesses of alu
max_resultbus_access              8 # max number accesses of resultbus
max_cycle_power_cc1         84.1838 # maximum cycle power usage of cc1
max_cycle_power_cc2         71.9074 # maximum cycle power usage of cc2
max_cycle_power_cc3         75.2168 # maximum cycle power usage of cc3
sim_invalid_addrs                 0 # total non-speculative bogus addresses seen (debug var)
ld_text_base           0x0120000000 # program text (code) segment base
ld_text_size                1990656 # program text (code) size in bytes
ld_data_base           0x0140000000 # program initialized data segment base
ld_data_size                 306320 # program init'ed `.data' and uninit'ed `.bss' size in bytes
ld_stack_base          0x011ff9b000 # program stack segment base (highest address in stack)
ld_stack_size                 16384 # program initial stack size
ld_prog_entry          0x0120128140 # program entry point (initial PC)
ld_environ_base        0x011ff7f0b0 # program environment base address address
ld_target_big_endian              0 # target executable endian-ness, non-zero if big endian
mem.page_count                 5831 # total number of pages allocated
mem.page_mem                 46648k # total size of memory pages allocated
mem.ptab_misses               56866 # total first level page table misses
mem.ptab_accesses         850468742 # total page table accesses
mem.ptab_miss_rate           0.0001 # first level page table miss rate

