sim-outorder: SimpleScalar/Alpha Tool Set version 3.0 of August, 2003.
Copyright (c) 1994-2003 by Todd M. Austin, Ph.D. and SimpleScalar, LLC.
All Rights Reserved. This version of SimpleScalar is licensed for academic
non-commercial use.  No portion of this work may be used by any commercial
entity, or for any commercial purpose, without the prior written permission
of SimpleScalar, LLC (info@simplescalar.com).


Processor Parameters:
Issue Width: 4
Window Size: 256
Number of Virtual Registers: 32
Number of Physical Registers: 256
Datapath Width: 64
Total Power Consumption: 100.49
Branch Predictor Power Consumption: 3.33649  (3.39%)
 branch target buffer power (W): 2.49493
 local predict power (W): 0.574771
 global predict power (W): 0.0996078
 chooser power (W): 0.0702439
 RAS power (W): 0.0969383
Rename Logic Power Consumption: 0.683325  (0.694%)
 Instruction Decode Power (W): 0.0159915
 RAT decode_power (W): 0.113514
 RAT wordline_power (W): 0.0493708
 RAT bitline_power (W): 0.493541
 DCL Comparators (W): 0.0109075
Instruction Window Power Consumption: 16.2962  (16.5%)
 tagdrive (W): 2.10657
 tagmatch (W): 0.961505
 Selection Logic (W): 0.228169
 decode_power (W): 1.16922
 wordline_power (W): 0.0844643
 bitline_power (W): 11.7463
Load/Store Queue Power Consumption: 2.73089  (2.77%)
 tagdrive (W): 0.457232
 tagmatch (W): 0.100774
 decode_power (W): 0.00799577
 wordline_power (W): 0.0150119
 bitline_power (W): 2.14988
Arch. Register File Power Consumption: 3.57247  (3.63%)
 decode_power (W): 0.113514
 wordline_power (W): 0.0844643
 bitline_power (W): 3.37449
Result Bus Power Consumption: 9.01293  (9.15%)
Total Clock Power: 31.3421  (31.8%)
Int ALU Power: 4.66013  (4.73%)
FP ALU Power: 14.281  (14.5%)
Instruction Cache Power Consumption: 2.76773  (2.81%)
 decode_power (W): 0.151353
 wordline_power (W): 0.180479
 bitline_power (W): 1.42251
 senseamp_power (W): 0.768
 tagarray_power (W): 0.245382
Itlb_power (W): 0.264834 (0.269%)
Data Cache Power Consumption: 5.53546  (5.62%)
 decode_power (W): 0.302705
 wordline_power (W): 0.360958
 bitline_power (W): 2.84503
 senseamp_power (W): 1.536
 tagarray_power (W): 0.490764
Dtlb_power (W): 0.903238 (0.917%)
Level 2 Cache Power Consumption: 3.10298 (3.15%)
 decode_power (W): 0.19487
 wordline_power (W): 0.0430878
 bitline_power (W): 1.77274
 senseamp_power (W): 0.192
 tagarray_power (W): 0.900275
sim: loading EIO file: ../benchmarks/176.gcc.00-integrate-ref.eio.gz
sim: command line: ./sim-outorder -config ../configs/current.config ../benchmarks/176.gcc.00-integrate-ref.eio.gz 

sim: simulation started @ Tue Nov 24 10:20:04 2015, options follow:

sim-outorder: This simulator implements a very detailed out-of-order issue
superscalar processor with a two-level memory system and speculative
execution support.  This simulator is a performance simulator, tracking the
latency of all pipeline operations.

# -config                     # load configuration from a file
# -dumpconfig                 # dump configuration to a file
# -h                    false # print help message    
# -v                    false # verbose operation     
# -d                    false # enable debug message  
# -i                    false # start in Dlite debugger
-seed                       1 # random number generator seed (0 for timer seed)
# -q                    false # initialize and terminate immediately
# -chkpt               <null> # restore EIO trace execution from <fname>
# -redir:sim     ../results/16_15_ruu/176.gcc.00-integrate-ref.eio.gz.out # redirect simulator output to file (non-interactive only)
# -redir:prog       /dev/null # redirect simulated program output to file
-nice                       0 # simulator scheduling priority
-freq            600000000.0000 # frequency             
-max:inst           100000000 # maximum number of inst's to execute
-fastfwd                    0 # number of insts skipped before timing starts
# -ptrace              <null> # generate pipetrace, i.e., <fname|stdout|stderr> <range>
-fetch:ifqsize              4 # instruction fetch queue size (in insts)
-fetch:mplat               15 # extra branch mis-prediction latency
-fetch:speed                1 # speed of front-end of machine relative to execution core
-bpred                perfect # branch predictor type {nottaken|taken|perfect|bimod|2lev|comb}
-bpred:bimod     2048 # bimodal predictor config (<table size>)
-bpred:2lev      1 16384 4 0 # 2-level predictor config (<l1size> <l2size> <hist_size> <xor>)
-bpred:comb      1024 # combining predictor config (<meta_table_size>)
-bpred:ras                  8 # return address stack size (0 for no return stack)
-bpred:btb       512 4 # BTB config (<num_sets> <associativity>)
# -bpred:spec_update       <null> # speculative predictors update in {ID|WB} (default non-spec)
-decode:width               4 # instruction decode B/W (insts/cycle)
-issue:width                4 # instruction issue B/W (insts/cycle)
-issue:inorder          false # run pipeline with in-order issue
-issue:wrongpath         true # issue instructions down wrong execution paths
-commit:width               4 # instruction commit B/W (insts/cycle)
-ruu:size                 256 # register update unit (RUU) size
-lsq:size                   8 # load/store queue (LSQ) size
-cache:dl1       dl1:32:64:8:f # l1 data cache config, i.e., {<config>|none}
-cache:dl1lat               1 # l1 data cache hit latency (in cycles)
-cache:dl2       dl2:256:64:8:f # l2 data cache config, i.e., {<config>|none}
-cache:dl2lat               2 # l2 data cache hit latency (in cycles)
-cache:il1       il1:32:64:8:f # l1 inst cache config, i.e., {<config>|dl1|dl2|none}
-cache:il1lat               1 # l1 instruction cache hit latency (in cycles)
-cache:il2                dl2 # l2 instruction cache config, i.e., {<config>|dl2|none}
-cache:il2lat               2 # l2 instruction cache hit latency (in cycles)
-cache:flush            false # flush caches on system calls
-cache:icompress        false # convert 64-bit inst addresses to 32-bit inst equivalents
-mem:lat         103 1 # memory access latency (<first_chunk> <inter_chunk>)
-mem:width                  8 # memory access bus width (in bytes)
-tlb:itlb        itlb:16:4096:4:l # instruction TLB config, i.e., {<config>|none}
-tlb:dtlb        dtlb:32:4096:4:l # data TLB config, i.e., {<config>|none}
-tlb:lat                   30 # inst/data TLB miss latency (in cycles)
-res:ialu                   4 # total number of integer ALU's available
-res:imult                  1 # total number of integer multiplier/dividers available
-res:memport                2 # total number of memory system ports available (to CPU)
-res:fpalu                  4 # total number of floating point ALU's available
-res:fpmult                 1 # total number of floating point multiplier/dividers available
# -pcstat              <null> # profile stat(s) against text addr's (mult uses ok)
-bugcompat              false # operate in backward-compatible bugs mode (for testing only)

  Pipetrace range arguments are formatted as follows:

    {{@|#}<start>}:{{@|#|+}<end>}

  Both ends of the range are optional, if neither are specified, the entire
  execution is traced.  Ranges that start with a `@' designate an address
  range to be traced, those that start with an `#' designate a cycle count
  range.  All other range values represent an instruction count range.  The
  second argument, if specified with a `+', indicates a value relative
  to the first argument, e.g., 1000:+100 == 1000:1100.  Program symbols may
  be used in all contexts.

    Examples:   -ptrace FOO.trc #0:#1000
                -ptrace BAR.trc @2000:
                -ptrace BLAH.trc :1500
                -ptrace UXXE.trc :
                -ptrace FOOBAR.trc @main:+278

  Branch predictor configuration examples for 2-level predictor:
    Configurations:   N, M, W, X
      N   # entries in first level (# of shift register(s))
      W   width of shift register(s)
      M   # entries in 2nd level (# of counters, or other FSM)
      X   (yes-1/no-0) xor history and address for 2nd level index
    Sample predictors:
      GAg     : 1, W, 2^W, 0
      GAp     : 1, W, M (M > 2^W), 0
      PAg     : N, W, 2^W, 0
      PAp     : N, W, M (M == 2^(N+W)), 0
      gshare  : 1, W, 2^W, 1
  Predictor `comb' combines a bimodal and a 2-level predictor.

  The cache config parameter <config> has the following format:

    <name>:<nsets>:<bsize>:<assoc>:<repl>

    <name>   - name of the cache being defined
    <nsets>  - number of sets in the cache
    <bsize>  - block size of the cache
    <assoc>  - associativity of the cache
    <repl>   - block replacement strategy, 'l'-LRU, 'f'-FIFO, 'r'-random

    Examples:   -cache:dl1 dl1:4096:32:1:l
                -dtlb dtlb:128:4096:32:r

  Cache levels can be unified by pointing a level of the instruction cache
  hierarchy at the data cache hiearchy using the "dl1" and "dl2" cache
  configuration arguments.  Most sensible combinations are supported, e.g.,

    A unified l2 cache (il2 is pointed at dl2):
      -cache:il1 il1:128:64:1:l -cache:il2 dl2
      -cache:dl1 dl1:256:32:1:l -cache:dl2 ul2:1024:64:2:l

    Or, a fully unified cache hierarchy (il1 pointed at dl1):
      -cache:il1 dl1
      -cache:dl1 ul1:256:32:1:l -cache:dl2 ul2:1024:64:2:l



sim: ** starting performance simulation **

sim: ** simulation statistics **
sim_num_insn              100000000 # total number of instructions committed
sim_num_refs               37610714 # total number of loads and stores committed
sim_num_loads              29393633 # total number of loads committed
sim_num_stores         8217081.0000 # total number of stores committed
sim_num_branches           16137508 # total number of branches committed
sim_elapsed_time                 96 # total simulation time in seconds
sim_inst_rate          1041666.6667 # simulation speed (in insts/sec)
sim_total_insn            100000000 # total number of instructions executed
sim_total_refs             37610714 # total number of loads and stores executed
sim_total_loads            29393633 # total number of loads executed
sim_total_stores       8217081.0000 # total number of stores executed
sim_total_branches         16137508 # total number of branches executed
sim_cycle                  54606557 # total simulation time in cycles
sim_IPC                      1.8313 # instructions per cycle
sim_CPI                      0.5461 # cycles per instruction
sim_exec_BW                  1.8313 # total instructions (mis-spec + committed) per cycle
sim_IPB                      6.1967 # instruction per branch
IFQ_count                 184415158 # cumulative IFQ occupancy
IFQ_fcount                 45877595 # cumulative IFQ full count
ifq_occupancy                3.3772 # avg IFQ occupancy (insn's)
ifq_rate                     1.8313 # avg IFQ dispatch rate (insn/cycle)
ifq_latency                  1.8442 # avg IFQ occupant latency (cycle's)
ifq_full                     0.8401 # fraction of time (cycle's) IFQ was full
RUU_count                 848547580 # cumulative RUU occupancy
RUU_fcount                        0 # cumulative RUU full count
ruu_occupancy               15.5393 # avg RUU occupancy (insn's)
ruu_rate                     1.8313 # avg RUU dispatch rate (insn/cycle)
ruu_latency                  8.4855 # avg RUU occupant latency (cycle's)
ruu_full                     0.0000 # fraction of time (cycle's) RUU was full
LSQ_count                 318519460 # cumulative LSQ occupancy
LSQ_fcount                 22091677 # cumulative LSQ full count
lsq_occupancy                5.8330 # avg LSQ occupancy (insn's)
lsq_rate                     1.8313 # avg LSQ dispatch rate (insn/cycle)
lsq_latency                  3.1852 # avg LSQ occupant latency (cycle's)
lsq_full                     0.4046 # fraction of time (cycle's) LSQ was full
sim_slip                 1304677660 # total number of slip cycles
avg_sim_slip                13.0468 # the average slip between issue and retirement
il1.accesses              117332439 # total number of accesses
il1.hits                  116126370 # total number of hits
il1.misses                  1206069 # total number of misses
il1.replacements            1205813 # total number of replacements
il1.writebacks                    0 # total number of writebacks
il1.invalidations                 0 # total number of invalidations
il1.miss_rate                0.0103 # miss rate (i.e., misses/ref)
il1.repl_rate                0.0103 # replacement rate (i.e., repls/ref)
il1.wb_rate                  0.0000 # writeback rate (i.e., wrbks/ref)
il1.inv_rate                 0.0000 # invalidation rate (i.e., invs/ref)
dl1.accesses               37514092 # total number of accesses
dl1.hits                   37282485 # total number of hits
dl1.misses                   231607 # total number of misses
dl1.replacements             231351 # total number of replacements
dl1.writebacks                90037 # total number of writebacks
dl1.invalidations                 0 # total number of invalidations
dl1.miss_rate                0.0062 # miss rate (i.e., misses/ref)
dl1.repl_rate                0.0062 # replacement rate (i.e., repls/ref)
dl1.wb_rate                  0.0024 # writeback rate (i.e., wrbks/ref)
dl1.inv_rate                 0.0000 # invalidation rate (i.e., invs/ref)
dl2.accesses                1527713 # total number of accesses
dl2.hits                    1338009 # total number of hits
dl2.misses                   189704 # total number of misses
dl2.replacements             187656 # total number of replacements
dl2.writebacks                49608 # total number of writebacks
dl2.invalidations                 0 # total number of invalidations
dl2.miss_rate                0.1242 # miss rate (i.e., misses/ref)
dl2.repl_rate                0.1228 # replacement rate (i.e., repls/ref)
dl2.wb_rate                  0.0325 # writeback rate (i.e., wrbks/ref)
dl2.inv_rate                 0.0000 # invalidation rate (i.e., invs/ref)
itlb.accesses             117332439 # total number of accesses
itlb.hits                 117321563 # total number of hits
itlb.misses                   10876 # total number of misses
itlb.replacements             10812 # total number of replacements
itlb.writebacks                   0 # total number of writebacks
itlb.invalidations                0 # total number of invalidations
itlb.miss_rate               0.0001 # miss rate (i.e., misses/ref)
itlb.repl_rate               0.0001 # replacement rate (i.e., repls/ref)
itlb.wb_rate                 0.0000 # writeback rate (i.e., wrbks/ref)
itlb.inv_rate                0.0000 # invalidation rate (i.e., invs/ref)
dtlb.accesses              37610713 # total number of accesses
dtlb.hits                  37602852 # total number of hits
dtlb.misses                    7861 # total number of misses
dtlb.replacements              7733 # total number of replacements
dtlb.writebacks                   0 # total number of writebacks
dtlb.invalidations                0 # total number of invalidations
dtlb.miss_rate               0.0002 # miss rate (i.e., misses/ref)
dtlb.repl_rate               0.0002 # replacement rate (i.e., repls/ref)
dtlb.wb_rate                 0.0000 # writeback rate (i.e., wrbks/ref)
dtlb.inv_rate                0.0000 # invalidation rate (i.e., invs/ref)
rename_power           37314043.4692 # total power usage of rename unit
bpred_power            182194150.3173 # total power usage of bpred unit
window_power           889880320.1049 # total power usage of instruction window
lsq_power              149124772.5773 # total power usage of load/store queue
regfile_power          195080401.5610 # total power usage of arch. regfile
icache_power           165597827.4575 # total power usage of icache
dcache_power           351595008.5003 # total power usage of dcache
dcache2_power          169442877.8554 # total power usage of dcache2
alu_power              1034312375.7589 # total power usage of alu
falu_power             779838695.4895 # total power usage of falu
resultbus_power        492164868.5721 # total power usage of resultbus
clock_power            1711482859.7744 # total power usage of clock
avg_rename_power             0.6833 # avg power usage of rename unit
avg_bpred_power              3.3365 # avg power usage of bpred unit
avg_window_power            16.2962 # avg power usage of instruction window
avg_lsq_power                2.7309 # avg power usage of lsq
avg_regfile_power            3.5725 # avg power usage of arch. regfile
avg_icache_power             3.0326 # avg power usage of icache
avg_dcache_power             6.4387 # avg power usage of dcache
avg_dcache2_power            3.1030 # avg power usage of dcache2
avg_alu_power               18.9412 # avg power usage of alu
avg_falu_power              14.2810 # avg power usage of falu
avg_resultbus_power          9.0129 # avg power usage of resultbus
avg_clock_power             31.3421 # avg power usage of clock
fetch_stage_power      347791977.7749 # total power usage of fetch stage
dispatch_stage_power   37314043.4692 # total power usage of dispatch stage
issue_stage_power      3086520223.3689 # total power usage of issue stage
avg_fetch_power              6.3691 # average power of fetch unit per cycle
avg_dispatch_power           0.6833 # average power of dispatch unit per cycle
avg_issue_power             56.5229 # average power of issue unit per cycle
total_power            5378189505.9484 # total power per cycle
avg_total_power_cycle       98.4898 # average total power per cycle
avg_total_power_cycle_nofp_nod2      81.1058 # average total power per cycle
avg_total_power_insn        53.7819 # average total power per insn
avg_total_power_insn_nofp_nod2      44.2891 # average total power per insn
rename_power_cc1       22451381.3906 # total power usage of rename unit_cc1
bpred_power_cc1              0.0000 # total power usage of bpred unit_cc1
window_power_cc1       675272613.4575 # total power usage of instruction window_cc1
lsq_power_cc1          23867696.3677 # total power usage of lsq_cc1
regfile_power_cc1      119161416.4783 # total power usage of arch. regfile_cc1
icache_power_cc1       102282499.0218 # total power usage of icache_cc1
dcache_power_cc1       156143723.3437 # total power usage of dcache_cc1
dcache2_power_cc1      4424166.8766 # total power usage of dcache2_cc1
alu_power_cc1          171873459.2108 # total power usage of alu_cc1
resultbus_power_cc1    322874860.6744 # total power usage of resultbus_cc1
clock_power_cc1        834758612.0276 # total power usage of clock_cc1
avg_rename_power_cc1         0.4111 # avg power usage of rename unit_cc1
avg_bpred_power_cc1          0.0000 # avg power usage of bpred unit_cc1
avg_window_power_cc1        12.3661 # avg power usage of instruction window_cc1
avg_lsq_power_cc1            0.4371 # avg power usage of lsq_cc1
avg_regfile_power_cc1        2.1822 # avg power usage of arch. regfile_cc1
avg_icache_power_cc1         1.8731 # avg power usage of icache_cc1
avg_dcache_power_cc1         2.8594 # avg power usage of dcache_cc1
avg_dcache2_power_cc1        0.0810 # avg power usage of dcache2_cc1
avg_alu_power_cc1            3.1475 # avg power usage of alu_cc1
avg_resultbus_power_cc1       5.9127 # avg power usage of resultbus_cc1
avg_clock_power_cc1         15.2868 # avg power usage of clock_cc1
fetch_stage_power_cc1  102282499.0218 # total power usage of fetch stage_cc1
dispatch_stage_power_cc1 22451381.3906 # total power usage of dispatch stage_cc1
issue_stage_power_cc1  1354456519.9307 # total power usage of issue stage_cc1
avg_fetch_power_cc1          1.8731 # average power of fetch unit per cycle_cc1
avg_dispatch_power_cc1       0.4111 # average power of dispatch unit per cycle_cc1
avg_issue_power_cc1         24.8039 # average power of issue unit per cycle_cc1
total_power_cycle_cc1  2433110428.8490 # total power per cycle_cc1
avg_total_power_cycle_cc1      44.5571 # average total power per cycle_cc1
avg_total_power_insn_cc1      24.3311 # average total power per insn_cc1
rename_power_cc2       17083133.1978 # total power usage of rename unit_cc2
bpred_power_cc2              0.0000 # total power usage of bpred unit_cc2
window_power_cc2       600548156.7197 # total power usage of instruction window_cc2
lsq_power_cc2          16550667.3949 # total power usage of lsq_cc2
regfile_power_cc2      38098173.5645 # total power usage of arch. regfile_cc2
icache_power_cc2       102282499.0218 # total power usage of icache_cc2
dcache_power_cc2       120770913.0132 # total power usage of dcache_cc2
dcache2_power_cc2      2370228.9767 # total power usage of dcache2_cc2
alu_power_cc2          116494027.4941 # total power usage of alu_cc2
resultbus_power_cc2    239242733.4970 # total power usage of resultbus_cc2
clock_power_cc2        675176965.2096 # total power usage of clock_cc2
avg_rename_power_cc2         0.3128 # avg power usage of rename unit_cc2
avg_bpred_power_cc2          0.0000 # avg power usage of bpred unit_cc2
avg_window_power_cc2        10.9977 # avg power usage of instruction window_cc2
avg_lsq_power_cc2            0.3031 # avg power usage of instruction lsq_cc2
avg_regfile_power_cc2        0.6977 # avg power usage of arch. regfile_cc2
avg_icache_power_cc2         1.8731 # avg power usage of icache_cc2
avg_dcache_power_cc2         2.2117 # avg power usage of dcache_cc2
avg_dcache2_power_cc2        0.0434 # avg power usage of dcache2_cc2
avg_alu_power_cc2            2.1333 # avg power usage of alu_cc2
avg_resultbus_power_cc2       4.3812 # avg power usage of resultbus_cc2
avg_clock_power_cc2         12.3644 # avg power usage of clock_cc2
fetch_stage_power_cc2  102282499.0218 # total power usage of fetch stage_cc2
dispatch_stage_power_cc2 17083133.1978 # total power usage of dispatch stage_cc2
issue_stage_power_cc2  1095976727.0956 # total power usage of issue stage_cc2
avg_fetch_power_cc2          1.8731 # average power of fetch unit per cycle_cc2
avg_dispatch_power_cc2       0.3128 # average power of dispatch unit per cycle_cc2
avg_issue_power_cc2         20.0704 # average power of issue unit per cycle_cc2
total_power_cycle_cc2  1928617498.0893 # total power per cycle_cc2
avg_total_power_cycle_cc2      35.3184 # average total power per cycle_cc2
avg_total_power_insn_cc2      19.2862 # average total power per insn_cc2
rename_power_cc3       18569399.4046 # total power usage of rename unit_cc3
bpred_power_cc3        18219415.0349 # total power usage of bpred unit_cc3
window_power_cc3       625205162.4421 # total power usage of instruction window_cc3
lsq_power_cc3          29083369.1978 # total power usage of lsq_cc3
regfile_power_cc3      44359965.8801 # total power usage of arch. regfile_cc3
icache_power_cc3       108614031.8220 # total power usage of icache_cc3
dcache_power_cc3       140870140.8846 # total power usage of dcache_cc3
dcache2_power_cc3      18873189.3810 # total power usage of dcache2_cc3
alu_power_cc3          202737918.8148 # total power usage of alu_cc3
resultbus_power_cc3    254025268.2073 # total power usage of resultbus_cc3
clock_power_cc3        763929122.0782 # total power usage of clock_cc3
avg_rename_power_cc3         0.3401 # avg power usage of rename unit_cc3
avg_bpred_power_cc3          0.3336 # avg power usage of bpred unit_cc3
avg_window_power_cc3        11.4493 # avg power usage of instruction window_cc3
avg_lsq_power_cc3            0.5326 # avg power usage of instruction lsq_cc3
avg_regfile_power_cc3        0.8124 # avg power usage of arch. regfile_cc3
avg_icache_power_cc3         1.9890 # avg power usage of icache_cc3
avg_dcache_power_cc3         2.5797 # avg power usage of dcache_cc3
avg_dcache2_power_cc3        0.3456 # avg power usage of dcache2_cc3
avg_alu_power_cc3            3.7127 # avg power usage of alu_cc3
avg_resultbus_power_cc3       4.6519 # avg power usage of resultbus_cc3
avg_clock_power_cc3         13.9897 # avg power usage of clock_cc3
fetch_stage_power_cc3  126833446.8568 # total power usage of fetch stage_cc3
dispatch_stage_power_cc3 18569399.4046 # total power usage of dispatch stage_cc3
issue_stage_power_cc3  1270795048.9276 # total power usage of issue stage_cc3
avg_fetch_power_cc3          2.3227 # average power of fetch unit per cycle_cc3
avg_dispatch_power_cc3       0.3401 # average power of dispatch unit per cycle_cc3
avg_issue_power_cc3         23.2718 # average power of issue unit per cycle_cc3
total_power_cycle_cc3  2224486983.1474 # total power per cycle_cc3
avg_total_power_cycle_cc3      40.7366 # average total power per cycle_cc3
avg_total_power_insn_cc3      22.2449 # average total power per insn_cc3
total_rename_access       100000000 # total number accesses of rename unit
total_bpred_access                0 # total number accesses of bpred unit
total_window_access       385485099 # total number accesses of instruction window
total_lsq_access           37707334 # total number accesses of load/store queue
total_regfile_access      143132677 # total number accesses of arch. regfile
total_icache_access       117332439 # total number accesses of icache
total_dcache_access        37514092 # total number accesses of dcache
total_dcache2_access        1527713 # total number accesses of dcache2
total_alu_access           99991717 # total number accesses of alu
total_resultbus_access    113256114 # total number accesses of resultbus
avg_rename_access            1.8313 # avg number accesses of rename unit
avg_bpred_access             0.0000 # avg number accesses of bpred unit
avg_window_access            7.0593 # avg number accesses of instruction window
avg_lsq_access               0.6905 # avg number accesses of lsq
avg_regfile_access           2.6212 # avg number accesses of arch. regfile
avg_icache_access            2.1487 # avg number accesses of icache
avg_dcache_access            0.6870 # avg number accesses of dcache
avg_dcache2_access           0.0280 # avg number accesses of dcache2
avg_alu_access               1.8311 # avg number accesses of alu
avg_resultbus_access         2.0740 # avg number accesses of resultbus
max_rename_access                 4 # max number accesses of rename unit
max_bpred_access                  0 # max number accesses of bpred unit
max_window_access                18 # max number accesses of instruction window
max_lsq_access                    6 # max number accesses of load/store queue
max_regfile_access               12 # max number accesses of arch. regfile
max_icache_access                 4 # max number accesses of icache
max_dcache_access                 4 # max number accesses of dcache
max_dcache2_access                6 # max number accesses of dcache2
max_alu_access                    4 # max number accesses of alu
max_resultbus_access              8 # max number accesses of resultbus
max_cycle_power_cc1         82.5669 # maximum cycle power usage of cc1
max_cycle_power_cc2         70.3011 # maximum cycle power usage of cc2
max_cycle_power_cc3         73.8195 # maximum cycle power usage of cc3
sim_invalid_addrs                 0 # total non-speculative bogus addresses seen (debug var)
ld_text_base           0x0120000000 # program text (code) segment base
ld_text_size                1990656 # program text (code) size in bytes
ld_data_base           0x0140000000 # program initialized data segment base
ld_data_size                 306320 # program init'ed `.data' and uninit'ed `.bss' size in bytes
ld_stack_base          0x011ff9b000 # program stack segment base (highest address in stack)
ld_stack_size                 16384 # program initial stack size
ld_prog_entry          0x012012858c # program entry point (initial PC)
ld_environ_base        0x011ff83680 # program environment base address address
ld_target_big_endian              0 # target executable endian-ness, non-zero if big endian
mem.page_count                  822 # total number of pages allocated
mem.page_mem                  6576k # total size of memory pages allocated
mem.ptab_misses               50989 # total first level page table misses
mem.ptab_accesses         667718552 # total page table accesses
mem.ptab_miss_rate           0.0001 # first level page table miss rate

