sim-outorder: SimpleScalar/Alpha Tool Set version 3.0 of August, 2003.
Copyright (c) 1994-2003 by Todd M. Austin, Ph.D. and SimpleScalar, LLC.
All Rights Reserved. This version of SimpleScalar is licensed for academic
non-commercial use.  No portion of this work may be used by any commercial
entity, or for any commercial purpose, without the prior written permission
of SimpleScalar, LLC (info@simplescalar.com).


Processor Parameters:
Issue Width: 4
Window Size: 256
Number of Virtual Registers: 32
Number of Physical Registers: 256
Datapath Width: 64
Total Power Consumption: 100.49
Branch Predictor Power Consumption: 3.33649  (3.39%)
 branch target buffer power (W): 2.49493
 local predict power (W): 0.574771
 global predict power (W): 0.0996078
 chooser power (W): 0.0702439
 RAS power (W): 0.0969383
Rename Logic Power Consumption: 0.683325  (0.694%)
 Instruction Decode Power (W): 0.0159915
 RAT decode_power (W): 0.113514
 RAT wordline_power (W): 0.0493708
 RAT bitline_power (W): 0.493541
 DCL Comparators (W): 0.0109075
Instruction Window Power Consumption: 16.2962  (16.5%)
 tagdrive (W): 2.10657
 tagmatch (W): 0.961505
 Selection Logic (W): 0.228169
 decode_power (W): 1.16922
 wordline_power (W): 0.0844643
 bitline_power (W): 11.7463
Load/Store Queue Power Consumption: 2.73089  (2.77%)
 tagdrive (W): 0.457232
 tagmatch (W): 0.100774
 decode_power (W): 0.00799577
 wordline_power (W): 0.0150119
 bitline_power (W): 2.14988
Arch. Register File Power Consumption: 3.57247  (3.63%)
 decode_power (W): 0.113514
 wordline_power (W): 0.0844643
 bitline_power (W): 3.37449
Result Bus Power Consumption: 9.01293  (9.15%)
Total Clock Power: 31.3421  (31.8%)
Int ALU Power: 4.66013  (4.73%)
FP ALU Power: 14.281  (14.5%)
Instruction Cache Power Consumption: 2.76773  (2.81%)
 decode_power (W): 0.151353
 wordline_power (W): 0.180479
 bitline_power (W): 1.42251
 senseamp_power (W): 0.768
 tagarray_power (W): 0.245382
Itlb_power (W): 0.264834 (0.269%)
Data Cache Power Consumption: 5.53546  (5.62%)
 decode_power (W): 0.302705
 wordline_power (W): 0.360958
 bitline_power (W): 2.84503
 senseamp_power (W): 1.536
 tagarray_power (W): 0.490764
Dtlb_power (W): 0.903238 (0.917%)
Level 2 Cache Power Consumption: 3.10298 (3.15%)
 decode_power (W): 0.19487
 wordline_power (W): 0.0430878
 bitline_power (W): 1.77274
 senseamp_power (W): 0.192
 tagarray_power (W): 0.900275
sim: loading EIO file: ../benchmarks/179.art.110-ref.eio.gz
sim: command line: ./sim-outorder -config ../configs/current.config ../benchmarks/179.art.110-ref.eio.gz 

sim: simulation started @ Tue Nov 24 10:20:04 2015, options follow:

sim-outorder: This simulator implements a very detailed out-of-order issue
superscalar processor with a two-level memory system and speculative
execution support.  This simulator is a performance simulator, tracking the
latency of all pipeline operations.

# -config                     # load configuration from a file
# -dumpconfig                 # dump configuration to a file
# -h                    false # print help message    
# -v                    false # verbose operation     
# -d                    false # enable debug message  
# -i                    false # start in Dlite debugger
-seed                       1 # random number generator seed (0 for timer seed)
# -q                    false # initialize and terminate immediately
# -chkpt               <null> # restore EIO trace execution from <fname>
# -redir:sim     ../results/16_15_ruu/179.art.110-ref.eio.gz.out # redirect simulator output to file (non-interactive only)
# -redir:prog       /dev/null # redirect simulated program output to file
-nice                       0 # simulator scheduling priority
-freq            600000000.0000 # frequency             
-max:inst           100000000 # maximum number of inst's to execute
-fastfwd                    0 # number of insts skipped before timing starts
# -ptrace              <null> # generate pipetrace, i.e., <fname|stdout|stderr> <range>
-fetch:ifqsize              4 # instruction fetch queue size (in insts)
-fetch:mplat               15 # extra branch mis-prediction latency
-fetch:speed                1 # speed of front-end of machine relative to execution core
-bpred                perfect # branch predictor type {nottaken|taken|perfect|bimod|2lev|comb}
-bpred:bimod     2048 # bimodal predictor config (<table size>)
-bpred:2lev      1 16384 4 0 # 2-level predictor config (<l1size> <l2size> <hist_size> <xor>)
-bpred:comb      1024 # combining predictor config (<meta_table_size>)
-bpred:ras                  8 # return address stack size (0 for no return stack)
-bpred:btb       512 4 # BTB config (<num_sets> <associativity>)
# -bpred:spec_update       <null> # speculative predictors update in {ID|WB} (default non-spec)
-decode:width               4 # instruction decode B/W (insts/cycle)
-issue:width                4 # instruction issue B/W (insts/cycle)
-issue:inorder          false # run pipeline with in-order issue
-issue:wrongpath         true # issue instructions down wrong execution paths
-commit:width               4 # instruction commit B/W (insts/cycle)
-ruu:size                 256 # register update unit (RUU) size
-lsq:size                   8 # load/store queue (LSQ) size
-cache:dl1       dl1:32:64:8:f # l1 data cache config, i.e., {<config>|none}
-cache:dl1lat               1 # l1 data cache hit latency (in cycles)
-cache:dl2       dl2:256:64:8:f # l2 data cache config, i.e., {<config>|none}
-cache:dl2lat               2 # l2 data cache hit latency (in cycles)
-cache:il1       il1:32:64:8:f # l1 inst cache config, i.e., {<config>|dl1|dl2|none}
-cache:il1lat               1 # l1 instruction cache hit latency (in cycles)
-cache:il2                dl2 # l2 instruction cache config, i.e., {<config>|dl2|none}
-cache:il2lat               2 # l2 instruction cache hit latency (in cycles)
-cache:flush            false # flush caches on system calls
-cache:icompress        false # convert 64-bit inst addresses to 32-bit inst equivalents
-mem:lat         103 1 # memory access latency (<first_chunk> <inter_chunk>)
-mem:width                  8 # memory access bus width (in bytes)
-tlb:itlb        itlb:16:4096:4:l # instruction TLB config, i.e., {<config>|none}
-tlb:dtlb        dtlb:32:4096:4:l # data TLB config, i.e., {<config>|none}
-tlb:lat                   30 # inst/data TLB miss latency (in cycles)
-res:ialu                   4 # total number of integer ALU's available
-res:imult                  1 # total number of integer multiplier/dividers available
-res:memport                2 # total number of memory system ports available (to CPU)
-res:fpalu                  4 # total number of floating point ALU's available
-res:fpmult                 1 # total number of floating point multiplier/dividers available
# -pcstat              <null> # profile stat(s) against text addr's (mult uses ok)
-bugcompat              false # operate in backward-compatible bugs mode (for testing only)

  Pipetrace range arguments are formatted as follows:

    {{@|#}<start>}:{{@|#|+}<end>}

  Both ends of the range are optional, if neither are specified, the entire
  execution is traced.  Ranges that start with a `@' designate an address
  range to be traced, those that start with an `#' designate a cycle count
  range.  All other range values represent an instruction count range.  The
  second argument, if specified with a `+', indicates a value relative
  to the first argument, e.g., 1000:+100 == 1000:1100.  Program symbols may
  be used in all contexts.

    Examples:   -ptrace FOO.trc #0:#1000
                -ptrace BAR.trc @2000:
                -ptrace BLAH.trc :1500
                -ptrace UXXE.trc :
                -ptrace FOOBAR.trc @main:+278

  Branch predictor configuration examples for 2-level predictor:
    Configurations:   N, M, W, X
      N   # entries in first level (# of shift register(s))
      W   width of shift register(s)
      M   # entries in 2nd level (# of counters, or other FSM)
      X   (yes-1/no-0) xor history and address for 2nd level index
    Sample predictors:
      GAg     : 1, W, 2^W, 0
      GAp     : 1, W, M (M > 2^W), 0
      PAg     : N, W, 2^W, 0
      PAp     : N, W, M (M == 2^(N+W)), 0
      gshare  : 1, W, 2^W, 1
  Predictor `comb' combines a bimodal and a 2-level predictor.

  The cache config parameter <config> has the following format:

    <name>:<nsets>:<bsize>:<assoc>:<repl>

    <name>   - name of the cache being defined
    <nsets>  - number of sets in the cache
    <bsize>  - block size of the cache
    <assoc>  - associativity of the cache
    <repl>   - block replacement strategy, 'l'-LRU, 'f'-FIFO, 'r'-random

    Examples:   -cache:dl1 dl1:4096:32:1:l
                -dtlb dtlb:128:4096:32:r

  Cache levels can be unified by pointing a level of the instruction cache
  hierarchy at the data cache hiearchy using the "dl1" and "dl2" cache
  configuration arguments.  Most sensible combinations are supported, e.g.,

    A unified l2 cache (il2 is pointed at dl2):
      -cache:il1 il1:128:64:1:l -cache:il2 dl2
      -cache:dl1 dl1:256:32:1:l -cache:dl2 ul2:1024:64:2:l

    Or, a fully unified cache hierarchy (il1 pointed at dl1):
      -cache:il1 dl1
      -cache:dl1 ul1:256:32:1:l -cache:dl2 ul2:1024:64:2:l



sim: ** starting performance simulation **

sim: ** simulation statistics **
sim_num_insn              100000000 # total number of instructions committed
sim_num_refs               32313275 # total number of loads and stores committed
sim_num_loads              24977025 # total number of loads committed
sim_num_stores         7336250.0000 # total number of stores committed
sim_num_branches           14258407 # total number of branches committed
sim_elapsed_time                209 # total simulation time in seconds
sim_inst_rate           478468.8995 # simulation speed (in insts/sec)
sim_total_insn            100000000 # total number of instructions executed
sim_total_refs             32313275 # total number of loads and stores executed
sim_total_loads            24977025 # total number of loads executed
sim_total_stores       7336250.0000 # total number of stores executed
sim_total_branches         14258407 # total number of branches executed
sim_cycle                 395538054 # total simulation time in cycles
sim_IPC                      0.2528 # instructions per cycle
sim_CPI                      3.9554 # cycles per instruction
sim_exec_BW                  0.2528 # total instructions (mis-spec + committed) per cycle
sim_IPB                      7.0134 # instruction per branch
IFQ_count                1582081901 # cumulative IFQ occupancy
IFQ_fcount                395519871 # cumulative IFQ full count
ifq_occupancy                3.9998 # avg IFQ occupancy (insn's)
ifq_rate                     0.2528 # avg IFQ dispatch rate (insn/cycle)
ifq_latency                 15.8208 # avg IFQ occupant latency (cycle's)
ifq_full                     1.0000 # fraction of time (cycle's) IFQ was full
RUU_count               10017999941 # cumulative RUU occupancy
RUU_fcount                        0 # cumulative RUU full count
ruu_occupancy               25.3275 # avg RUU occupancy (insn's)
ruu_rate                     0.2528 # avg RUU dispatch rate (insn/cycle)
ruu_latency                100.1800 # avg RUU occupant latency (cycle's)
ruu_full                     0.0000 # fraction of time (cycle's) RUU was full
LSQ_count                3109712007 # cumulative LSQ occupancy
LSQ_fcount                374646829 # cumulative LSQ full count
lsq_occupancy                7.8620 # avg LSQ occupancy (insn's)
lsq_rate                     0.2528 # avg LSQ dispatch rate (insn/cycle)
lsq_latency                 31.0971 # avg LSQ occupant latency (cycle's)
lsq_full                     0.9472 # fraction of time (cycle's) LSQ was full
sim_slip                13260023830 # total number of slip cycles
avg_sim_slip               132.6002 # the average slip between issue and retirement
il1.accesses              114693975 # total number of accesses
il1.hits                  114693810 # total number of hits
il1.misses                      165 # total number of misses
il1.replacements                  0 # total number of replacements
il1.writebacks                    0 # total number of writebacks
il1.invalidations                 0 # total number of invalidations
il1.miss_rate                0.0000 # miss rate (i.e., misses/ref)
il1.repl_rate                0.0000 # replacement rate (i.e., repls/ref)
il1.wb_rate                  0.0000 # writeback rate (i.e., wrbks/ref)
il1.inv_rate                 0.0000 # invalidation rate (i.e., invs/ref)
dl1.accesses               32025636 # total number of accesses
dl1.hits                   21557362 # total number of hits
dl1.misses                 10468274 # total number of misses
dl1.replacements           10468018 # total number of replacements
dl1.writebacks              3447516 # total number of writebacks
dl1.invalidations                 0 # total number of invalidations
dl1.miss_rate                0.3269 # miss rate (i.e., misses/ref)
dl1.repl_rate                0.3269 # replacement rate (i.e., repls/ref)
dl1.wb_rate                  0.1076 # writeback rate (i.e., wrbks/ref)
dl1.inv_rate                 0.0000 # invalidation rate (i.e., invs/ref)
dl2.accesses               13915955 # total number of accesses
dl2.hits                    3477197 # total number of hits
dl2.misses                 10438758 # total number of misses
dl2.replacements           10436710 # total number of replacements
dl2.writebacks              3424137 # total number of writebacks
dl2.invalidations                 0 # total number of invalidations
dl2.miss_rate                0.7501 # miss rate (i.e., misses/ref)
dl2.repl_rate                0.7500 # replacement rate (i.e., repls/ref)
dl2.wb_rate                  0.2461 # writeback rate (i.e., wrbks/ref)
dl2.inv_rate                 0.0000 # invalidation rate (i.e., invs/ref)
itlb.accesses             114693975 # total number of accesses
itlb.hits                 114693968 # total number of hits
itlb.misses                       7 # total number of misses
itlb.replacements                 0 # total number of replacements
itlb.writebacks                   0 # total number of writebacks
itlb.invalidations                0 # total number of invalidations
itlb.miss_rate               0.0000 # miss rate (i.e., misses/ref)
itlb.repl_rate               0.0000 # replacement rate (i.e., repls/ref)
itlb.wb_rate                 0.0000 # writeback rate (i.e., wrbks/ref)
itlb.inv_rate                0.0000 # invalidation rate (i.e., invs/ref)
dtlb.accesses              32313270 # total number of accesses
dtlb.hits                  32046594 # total number of hits
dtlb.misses                  266676 # total number of misses
dtlb.replacements            266548 # total number of replacements
dtlb.writebacks                   0 # total number of writebacks
dtlb.invalidations                0 # total number of invalidations
dtlb.miss_rate               0.0083 # miss rate (i.e., misses/ref)
dtlb.repl_rate               0.0082 # replacement rate (i.e., repls/ref)
dtlb.wb_rate                 0.0000 # writeback rate (i.e., wrbks/ref)
dtlb.inv_rate                0.0000 # invalidation rate (i.e., invs/ref)
rename_power           270281168.3245 # total power usage of rename unit
bpred_power            1319708169.9121 # total power usage of bpred unit
window_power           6445774063.6142 # total power usage of instruction window
lsq_power              1080172899.0763 # total power usage of load/store queue
regfile_power          1413048661.0670 # total power usage of arch. regfile
icache_power           1199494090.3588 # total power usage of icache
dcache_power           2546749189.8739 # total power usage of dcache
dcache2_power          1227345402.1478 # total power usage of dcache2
alu_power              7491955680.5544 # total power usage of alu
falu_power             5648696732.4341 # total power usage of falu
resultbus_power        3564955264.4620 # total power usage of resultbus
clock_power            12396983700.5295 # total power usage of clock
avg_rename_power             0.6833 # avg power usage of rename unit
avg_bpred_power              3.3365 # avg power usage of bpred unit
avg_window_power            16.2962 # avg power usage of instruction window
avg_lsq_power                2.7309 # avg power usage of lsq
avg_regfile_power            3.5725 # avg power usage of arch. regfile
avg_icache_power             3.0326 # avg power usage of icache
avg_dcache_power             6.4387 # avg power usage of dcache
avg_dcache2_power            3.1030 # avg power usage of dcache2
avg_alu_power               18.9412 # avg power usage of alu
avg_falu_power              14.2810 # avg power usage of falu
avg_resultbus_power          9.0129 # avg power usage of resultbus
avg_clock_power             31.3421 # avg power usage of clock
fetch_stage_power      2519202260.2709 # total power usage of fetch stage
dispatch_stage_power   270281168.3245 # total power usage of dispatch stage
issue_stage_power      22356952499.7285 # total power usage of issue stage
avg_fetch_power              6.3691 # average power of fetch unit per cycle
avg_dispatch_power           0.6833 # average power of dispatch unit per cycle
avg_issue_power             56.5229 # average power of issue unit per cycle
total_power            38956468289.9204 # total power per cycle
avg_total_power_cycle       98.4898 # average total power per cycle
avg_total_power_cycle_nofp_nod2      81.1058 # average total power per cycle
avg_total_power_insn       389.5647 # average total power per insn
avg_total_power_insn_nofp_nod2     320.8043 # average total power per insn
rename_power_cc1       24769237.9860 # total power usage of rename unit_cc1
bpred_power_cc1              0.0000 # total power usage of bpred unit_cc1
window_power_cc1       1092433432.5613 # total power usage of instruction window_cc1
lsq_power_cc1          24027881.8445 # total power usage of lsq_cc1
regfile_power_cc1      154118818.5964 # total power usage of arch. regfile_cc1
icache_power_cc1       109924827.8324 # total power usage of icache_cc1
dcache_power_cc1       159490988.8131 # total power usage of dcache_cc1
dcache2_power_cc1      28675191.7158 # total power usage of dcache2_cc1
alu_power_cc1          409201547.5457 # total power usage of alu_cc1
resultbus_power_cc1    510838093.7765 # total power usage of resultbus_cc1
clock_power_cc1        1236620490.3230 # total power usage of clock_cc1
avg_rename_power_cc1         0.0626 # avg power usage of rename unit_cc1
avg_bpred_power_cc1          0.0000 # avg power usage of bpred unit_cc1
avg_window_power_cc1         2.7619 # avg power usage of instruction window_cc1
avg_lsq_power_cc1            0.0607 # avg power usage of lsq_cc1
avg_regfile_power_cc1        0.3896 # avg power usage of arch. regfile_cc1
avg_icache_power_cc1         0.2779 # avg power usage of icache_cc1
avg_dcache_power_cc1         0.4032 # avg power usage of dcache_cc1
avg_dcache2_power_cc1        0.0725 # avg power usage of dcache2_cc1
avg_alu_power_cc1            1.0345 # avg power usage of alu_cc1
avg_resultbus_power_cc1       1.2915 # avg power usage of resultbus_cc1
avg_clock_power_cc1          3.1264 # avg power usage of clock_cc1
fetch_stage_power_cc1  109924827.8324 # total power usage of fetch stage_cc1
dispatch_stage_power_cc1 24769237.9860 # total power usage of dispatch stage_cc1
issue_stage_power_cc1  2224667136.2570 # total power usage of issue stage_cc1
avg_fetch_power_cc1          0.2779 # average power of fetch unit per cycle_cc1
avg_dispatch_power_cc1       0.0626 # average power of dispatch unit per cycle_cc1
avg_issue_power_cc1          5.6244 # average power of issue unit per cycle_cc1
total_power_cycle_cc1  3750100510.9948 # total power per cycle_cc1
avg_total_power_cycle_cc1       9.4810 # average total power per cycle_cc1
avg_total_power_insn_cc1      37.5010 # average total power per insn_cc1
rename_power_cc2       17083133.1980 # total power usage of rename unit_cc2
bpred_power_cc2              0.0000 # total power usage of bpred unit_cc2
window_power_cc2       600661104.7251 # total power usage of instruction window_cc2
lsq_power_cc2          14376079.5221 # total power usage of lsq_cc2
regfile_power_cc2      46045775.8824 # total power usage of arch. regfile_cc2
icache_power_cc2       109924827.8324 # total power usage of icache_cc2
dcache_power_cc2       103101663.7630 # total power usage of dcache_cc2
dcache2_power_cc2      21590442.5650 # total power usage of dcache2_cc2
alu_power_cc2          163689755.4188 # total power usage of alu_cc2
resultbus_power_cc2    233882473.0493 # total power usage of resultbus_cc2
clock_power_cc2        645977160.2968 # total power usage of clock_cc2
avg_rename_power_cc2         0.0432 # avg power usage of rename unit_cc2
avg_bpred_power_cc2          0.0000 # avg power usage of bpred unit_cc2
avg_window_power_cc2         1.5186 # avg power usage of instruction window_cc2
avg_lsq_power_cc2            0.0363 # avg power usage of instruction lsq_cc2
avg_regfile_power_cc2        0.1164 # avg power usage of arch. regfile_cc2
avg_icache_power_cc2         0.2779 # avg power usage of icache_cc2
avg_dcache_power_cc2         0.2607 # avg power usage of dcache_cc2
avg_dcache2_power_cc2        0.0546 # avg power usage of dcache2_cc2
avg_alu_power_cc2            0.4138 # avg power usage of alu_cc2
avg_resultbus_power_cc2       0.5913 # avg power usage of resultbus_cc2
avg_clock_power_cc2          1.6332 # avg power usage of clock_cc2
fetch_stage_power_cc2  109924827.8324 # total power usage of fetch stage_cc2
dispatch_stage_power_cc2 17083133.1980 # total power usage of dispatch stage_cc2
issue_stage_power_cc2  1137301519.0434 # total power usage of issue stage_cc2
avg_fetch_power_cc2          0.2779 # average power of fetch unit per cycle_cc2
avg_dispatch_power_cc2       0.0432 # average power of dispatch unit per cycle_cc2
avg_issue_power_cc2          2.8753 # average power of issue unit per cycle_cc2
total_power_cycle_cc2  1956332416.2529 # total power per cycle_cc2
avg_total_power_cycle_cc2       4.9460 # average total power per cycle_cc2
avg_total_power_insn_cc2      19.5633 # average total power per insn_cc2
rename_power_cc3       41634326.4678 # total power usage of rename unit_cc3
bpred_power_cc3        131970816.5135 # total power usage of bpred unit_cc3
window_power_cc3       1130493091.0794 # total power usage of instruction window_cc3
lsq_power_cc3          119859587.4692 # total power usage of lsq_cc3
regfile_power_cc3      170526841.5917 # total power usage of arch. regfile_cc3
icache_power_cc3       218881753.3507 # total power usage of icache_cc3
dcache_power_cc3       341907552.2613 # total power usage of dcache_cc3
dcache2_power_cc3      141546539.9368 # total power usage of dcache2_cc3
alu_power_cc3          871965173.7952 # total power usage of alu_cc3
resultbus_power_cc3    536099498.1567 # total power usage of resultbus_cc3
clock_power_cc3        1757004831.2886 # total power usage of clock_cc3
avg_rename_power_cc3         0.1053 # avg power usage of rename unit_cc3
avg_bpred_power_cc3          0.3336 # avg power usage of bpred unit_cc3
avg_window_power_cc3         2.8581 # avg power usage of instruction window_cc3
avg_lsq_power_cc3            0.3030 # avg power usage of instruction lsq_cc3
avg_regfile_power_cc3        0.4311 # avg power usage of arch. regfile_cc3
avg_icache_power_cc3         0.5534 # avg power usage of icache_cc3
avg_dcache_power_cc3         0.8644 # avg power usage of dcache_cc3
avg_dcache2_power_cc3        0.3579 # avg power usage of dcache2_cc3
avg_alu_power_cc3            2.2045 # avg power usage of alu_cc3
avg_resultbus_power_cc3       1.3554 # avg power usage of resultbus_cc3
avg_clock_power_cc3          4.4421 # avg power usage of clock_cc3
fetch_stage_power_cc3  350852569.8642 # total power usage of fetch stage_cc3
dispatch_stage_power_cc3 41634326.4678 # total power usage of dispatch stage_cc3
issue_stage_power_cc3  3141871442.6987 # total power usage of issue stage_cc3
avg_fetch_power_cc3          0.8870 # average power of fetch unit per cycle_cc3
avg_dispatch_power_cc3       0.1053 # average power of dispatch unit per cycle_cc3
avg_issue_power_cc3          7.9433 # average power of issue unit per cycle_cc3
total_power_cycle_cc3  5461890011.9110 # total power per cycle_cc3
avg_total_power_cycle_cc3      13.8088 # average total power per cycle_cc3
avg_total_power_insn_cc3      54.6189 # average total power per insn_cc3
total_rename_access       100000000 # total number accesses of rename unit
total_bpred_access                0 # total number accesses of bpred unit
total_window_access       385982762 # total number accesses of instruction window
total_lsq_access           32600904 # total number accesses of load/store queue
total_regfile_access      170137254 # total number accesses of arch. regfile
total_icache_access       114693975 # total number accesses of icache
total_dcache_access        32025636 # total number accesses of dcache
total_dcache2_access       13915955 # total number accesses of dcache2
total_alu_access           99999878 # total number accesses of alu
total_resultbus_access    110718598 # total number accesses of resultbus
avg_rename_access            0.2528 # avg number accesses of rename unit
avg_bpred_access             0.0000 # avg number accesses of bpred unit
avg_window_access            0.9758 # avg number accesses of instruction window
avg_lsq_access               0.0824 # avg number accesses of lsq
avg_regfile_access           0.4301 # avg number accesses of arch. regfile
avg_icache_access            0.2900 # avg number accesses of icache
avg_dcache_access            0.0810 # avg number accesses of dcache
avg_dcache2_access           0.0352 # avg number accesses of dcache2
avg_alu_access               0.2528 # avg number accesses of alu
avg_resultbus_access         0.2799 # avg number accesses of resultbus
max_rename_access                 4 # max number accesses of rename unit
max_bpred_access                  0 # max number accesses of bpred unit
max_window_access                18 # max number accesses of instruction window
max_lsq_access                    5 # max number accesses of load/store queue
max_regfile_access               12 # max number accesses of arch. regfile
max_icache_access                 4 # max number accesses of icache
max_dcache_access                 4 # max number accesses of dcache
max_dcache2_access                5 # max number accesses of dcache2
max_alu_access                    4 # max number accesses of alu
max_resultbus_access              8 # max number accesses of resultbus
max_cycle_power_cc1         77.3427 # maximum cycle power usage of cc1
max_cycle_power_cc2         59.6493 # maximum cycle power usage of cc2
max_cycle_power_cc3         62.9933 # maximum cycle power usage of cc3
sim_invalid_addrs                 0 # total non-speculative bogus addresses seen (debug var)
ld_text_base           0x0120000000 # program text (code) segment base
ld_text_size                 237568 # program text (code) size in bytes
ld_data_base           0x0140000000 # program initialized data segment base
ld_data_size                  76672 # program init'ed `.data' and uninit'ed `.bss' size in bytes
ld_stack_base          0x011ff9b000 # program stack segment base (highest address in stack)
ld_stack_size                 16384 # program initial stack size
ld_prog_entry          0x012000fb10 # program entry point (initial PC)
ld_environ_base        0x011ff96ea0 # program environment base address address
ld_target_big_endian              0 # target executable endian-ness, non-zero if big endian
mem.page_count                  498 # total number of pages allocated
mem.page_mem                  3984k # total size of memory pages allocated
mem.ptab_misses                 602 # total first level page table misses
mem.ptab_accesses         703277654 # total page table accesses
mem.ptab_miss_rate           0.0000 # first level page table miss rate

