sim-outorder: SimpleScalar/Alpha Tool Set version 3.0 of August, 2003.
Copyright (c) 1994-2003 by Todd M. Austin, Ph.D. and SimpleScalar, LLC.
All Rights Reserved. This version of SimpleScalar is licensed for academic
non-commercial use.  No portion of this work may be used by any commercial
entity, or for any commercial purpose, without the prior written permission
of SimpleScalar, LLC (info@simplescalar.com).


Processor Parameters:
Issue Width: 4
Window Size: 256
Number of Virtual Registers: 32
Number of Physical Registers: 256
Datapath Width: 64
Total Power Consumption: 100.49
Branch Predictor Power Consumption: 3.33649  (3.39%)
 branch target buffer power (W): 2.49493
 local predict power (W): 0.574771
 global predict power (W): 0.0996078
 chooser power (W): 0.0702439
 RAS power (W): 0.0969383
Rename Logic Power Consumption: 0.683325  (0.694%)
 Instruction Decode Power (W): 0.0159915
 RAT decode_power (W): 0.113514
 RAT wordline_power (W): 0.0493708
 RAT bitline_power (W): 0.493541
 DCL Comparators (W): 0.0109075
Instruction Window Power Consumption: 16.2962  (16.5%)
 tagdrive (W): 2.10657
 tagmatch (W): 0.961505
 Selection Logic (W): 0.228169
 decode_power (W): 1.16922
 wordline_power (W): 0.0844643
 bitline_power (W): 11.7463
Load/Store Queue Power Consumption: 2.73089  (2.77%)
 tagdrive (W): 0.457232
 tagmatch (W): 0.100774
 decode_power (W): 0.00799577
 wordline_power (W): 0.0150119
 bitline_power (W): 2.14988
Arch. Register File Power Consumption: 3.57247  (3.63%)
 decode_power (W): 0.113514
 wordline_power (W): 0.0844643
 bitline_power (W): 3.37449
Result Bus Power Consumption: 9.01293  (9.15%)
Total Clock Power: 31.3421  (31.8%)
Int ALU Power: 4.66013  (4.73%)
FP ALU Power: 14.281  (14.5%)
Instruction Cache Power Consumption: 2.76773  (2.81%)
 decode_power (W): 0.151353
 wordline_power (W): 0.180479
 bitline_power (W): 1.42251
 senseamp_power (W): 0.768
 tagarray_power (W): 0.245382
Itlb_power (W): 0.264834 (0.269%)
Data Cache Power Consumption: 5.53546  (5.62%)
 decode_power (W): 0.302705
 wordline_power (W): 0.360958
 bitline_power (W): 2.84503
 senseamp_power (W): 1.536
 tagarray_power (W): 0.490764
Dtlb_power (W): 0.903238 (0.917%)
Level 2 Cache Power Consumption: 3.10298 (3.15%)
 decode_power (W): 0.19487
 wordline_power (W): 0.0430878
 bitline_power (W): 1.77274
 senseamp_power (W): 0.192
 tagarray_power (W): 0.900275
sim: loading EIO file: ../benchmarks/253.perlbmk.diffmail-ref.eio.gz
sim: command line: ./sim-outorder -config ../configs/current.config ../benchmarks/253.perlbmk.diffmail-ref.eio.gz 

sim: simulation started @ Tue Nov 24 10:20:07 2015, options follow:

sim-outorder: This simulator implements a very detailed out-of-order issue
superscalar processor with a two-level memory system and speculative
execution support.  This simulator is a performance simulator, tracking the
latency of all pipeline operations.

# -config                     # load configuration from a file
# -dumpconfig                 # dump configuration to a file
# -h                    false # print help message    
# -v                    false # verbose operation     
# -d                    false # enable debug message  
# -i                    false # start in Dlite debugger
-seed                       1 # random number generator seed (0 for timer seed)
# -q                    false # initialize and terminate immediately
# -chkpt               <null> # restore EIO trace execution from <fname>
# -redir:sim     ../results/16_15_ruu/253.perlbmk.diffmail-ref.eio.gz.out # redirect simulator output to file (non-interactive only)
# -redir:prog       /dev/null # redirect simulated program output to file
-nice                       0 # simulator scheduling priority
-freq            600000000.0000 # frequency             
-max:inst           100000000 # maximum number of inst's to execute
-fastfwd                    0 # number of insts skipped before timing starts
# -ptrace              <null> # generate pipetrace, i.e., <fname|stdout|stderr> <range>
-fetch:ifqsize              4 # instruction fetch queue size (in insts)
-fetch:mplat               15 # extra branch mis-prediction latency
-fetch:speed                1 # speed of front-end of machine relative to execution core
-bpred                perfect # branch predictor type {nottaken|taken|perfect|bimod|2lev|comb}
-bpred:bimod     2048 # bimodal predictor config (<table size>)
-bpred:2lev      1 16384 4 0 # 2-level predictor config (<l1size> <l2size> <hist_size> <xor>)
-bpred:comb      1024 # combining predictor config (<meta_table_size>)
-bpred:ras                  8 # return address stack size (0 for no return stack)
-bpred:btb       512 4 # BTB config (<num_sets> <associativity>)
# -bpred:spec_update       <null> # speculative predictors update in {ID|WB} (default non-spec)
-decode:width               4 # instruction decode B/W (insts/cycle)
-issue:width                4 # instruction issue B/W (insts/cycle)
-issue:inorder          false # run pipeline with in-order issue
-issue:wrongpath         true # issue instructions down wrong execution paths
-commit:width               4 # instruction commit B/W (insts/cycle)
-ruu:size                 256 # register update unit (RUU) size
-lsq:size                   8 # load/store queue (LSQ) size
-cache:dl1       dl1:32:64:8:f # l1 data cache config, i.e., {<config>|none}
-cache:dl1lat               1 # l1 data cache hit latency (in cycles)
-cache:dl2       dl2:256:64:8:f # l2 data cache config, i.e., {<config>|none}
-cache:dl2lat               2 # l2 data cache hit latency (in cycles)
-cache:il1       il1:32:64:8:f # l1 inst cache config, i.e., {<config>|dl1|dl2|none}
-cache:il1lat               1 # l1 instruction cache hit latency (in cycles)
-cache:il2                dl2 # l2 instruction cache config, i.e., {<config>|dl2|none}
-cache:il2lat               2 # l2 instruction cache hit latency (in cycles)
-cache:flush            false # flush caches on system calls
-cache:icompress        false # convert 64-bit inst addresses to 32-bit inst equivalents
-mem:lat         103 1 # memory access latency (<first_chunk> <inter_chunk>)
-mem:width                  8 # memory access bus width (in bytes)
-tlb:itlb        itlb:16:4096:4:l # instruction TLB config, i.e., {<config>|none}
-tlb:dtlb        dtlb:32:4096:4:l # data TLB config, i.e., {<config>|none}
-tlb:lat                   30 # inst/data TLB miss latency (in cycles)
-res:ialu                   4 # total number of integer ALU's available
-res:imult                  1 # total number of integer multiplier/dividers available
-res:memport                2 # total number of memory system ports available (to CPU)
-res:fpalu                  4 # total number of floating point ALU's available
-res:fpmult                 1 # total number of floating point multiplier/dividers available
# -pcstat              <null> # profile stat(s) against text addr's (mult uses ok)
-bugcompat              false # operate in backward-compatible bugs mode (for testing only)

  Pipetrace range arguments are formatted as follows:

    {{@|#}<start>}:{{@|#|+}<end>}

  Both ends of the range are optional, if neither are specified, the entire
  execution is traced.  Ranges that start with a `@' designate an address
  range to be traced, those that start with an `#' designate a cycle count
  range.  All other range values represent an instruction count range.  The
  second argument, if specified with a `+', indicates a value relative
  to the first argument, e.g., 1000:+100 == 1000:1100.  Program symbols may
  be used in all contexts.

    Examples:   -ptrace FOO.trc #0:#1000
                -ptrace BAR.trc @2000:
                -ptrace BLAH.trc :1500
                -ptrace UXXE.trc :
                -ptrace FOOBAR.trc @main:+278

  Branch predictor configuration examples for 2-level predictor:
    Configurations:   N, M, W, X
      N   # entries in first level (# of shift register(s))
      W   width of shift register(s)
      M   # entries in 2nd level (# of counters, or other FSM)
      X   (yes-1/no-0) xor history and address for 2nd level index
    Sample predictors:
      GAg     : 1, W, 2^W, 0
      GAp     : 1, W, M (M > 2^W), 0
      PAg     : N, W, 2^W, 0
      PAp     : N, W, M (M == 2^(N+W)), 0
      gshare  : 1, W, 2^W, 1
  Predictor `comb' combines a bimodal and a 2-level predictor.

  The cache config parameter <config> has the following format:

    <name>:<nsets>:<bsize>:<assoc>:<repl>

    <name>   - name of the cache being defined
    <nsets>  - number of sets in the cache
    <bsize>  - block size of the cache
    <assoc>  - associativity of the cache
    <repl>   - block replacement strategy, 'l'-LRU, 'f'-FIFO, 'r'-random

    Examples:   -cache:dl1 dl1:4096:32:1:l
                -dtlb dtlb:128:4096:32:r

  Cache levels can be unified by pointing a level of the instruction cache
  hierarchy at the data cache hiearchy using the "dl1" and "dl2" cache
  configuration arguments.  Most sensible combinations are supported, e.g.,

    A unified l2 cache (il2 is pointed at dl2):
      -cache:il1 il1:128:64:1:l -cache:il2 dl2
      -cache:dl1 dl1:256:32:1:l -cache:dl2 ul2:1024:64:2:l

    Or, a fully unified cache hierarchy (il1 pointed at dl1):
      -cache:il1 dl1
      -cache:dl1 ul1:256:32:1:l -cache:dl2 ul2:1024:64:2:l



sim: ** starting performance simulation **

sim: ** simulation statistics **
sim_num_insn              100000000 # total number of instructions committed
sim_num_refs               46161587 # total number of loads and stores committed
sim_num_loads              29759422 # total number of loads committed
sim_num_stores         16402165.0000 # total number of stores committed
sim_num_branches           14085061 # total number of branches committed
sim_elapsed_time                112 # total simulation time in seconds
sim_inst_rate           892857.1429 # simulation speed (in insts/sec)
sim_total_insn            100000000 # total number of instructions executed
sim_total_refs             46161587 # total number of loads and stores executed
sim_total_loads            29759422 # total number of loads executed
sim_total_stores       16402165.0000 # total number of stores executed
sim_total_branches         14085061 # total number of branches executed
sim_cycle                  80660605 # total simulation time in cycles
sim_IPC                      1.2398 # instructions per cycle
sim_CPI                      0.8066 # cycles per instruction
sim_exec_BW                  1.2398 # total instructions (mis-spec + committed) per cycle
sim_IPB                      7.0997 # instruction per branch
IFQ_count                 233297142 # cumulative IFQ occupancy
IFQ_fcount                 58047108 # cumulative IFQ full count
ifq_occupancy                2.8923 # avg IFQ occupancy (insn's)
ifq_rate                     1.2398 # avg IFQ dispatch rate (insn/cycle)
ifq_latency                  2.3330 # avg IFQ occupant latency (cycle's)
ifq_full                     0.7196 # fraction of time (cycle's) IFQ was full
RUU_count                 882218696 # cumulative RUU occupancy
RUU_fcount                        0 # cumulative RUU full count
ruu_occupancy               10.9374 # avg RUU occupancy (insn's)
ruu_rate                     1.2398 # avg RUU dispatch rate (insn/cycle)
ruu_latency                  8.8222 # avg RUU occupant latency (cycle's)
ruu_full                     0.0000 # fraction of time (cycle's) RUU was full
LSQ_count                 419910565 # cumulative LSQ occupancy
LSQ_fcount                 36906070 # cumulative LSQ full count
lsq_occupancy                5.2059 # avg LSQ occupancy (insn's)
lsq_rate                     1.2398 # avg LSQ dispatch rate (insn/cycle)
lsq_latency                  4.1991 # avg LSQ occupant latency (cycle's)
lsq_full                     0.4575 # fraction of time (cycle's) LSQ was full
sim_slip                 1448290775 # total number of slip cycles
avg_sim_slip                14.4829 # the average slip between issue and retirement
il1.accesses              116116332 # total number of accesses
il1.hits                  114941821 # total number of hits
il1.misses                  1174511 # total number of misses
il1.replacements            1174255 # total number of replacements
il1.writebacks                    0 # total number of writebacks
il1.invalidations                 0 # total number of invalidations
il1.miss_rate                0.0101 # miss rate (i.e., misses/ref)
il1.repl_rate                0.0101 # replacement rate (i.e., repls/ref)
il1.wb_rate                  0.0000 # writeback rate (i.e., wrbks/ref)
il1.inv_rate                 0.0000 # invalidation rate (i.e., invs/ref)
dl1.accesses               45570953 # total number of accesses
dl1.hits                   44798184 # total number of hits
dl1.misses                   772769 # total number of misses
dl1.replacements             772513 # total number of replacements
dl1.writebacks               349561 # total number of writebacks
dl1.invalidations                 0 # total number of invalidations
dl1.miss_rate                0.0170 # miss rate (i.e., misses/ref)
dl1.repl_rate                0.0170 # replacement rate (i.e., repls/ref)
dl1.wb_rate                  0.0077 # writeback rate (i.e., wrbks/ref)
dl1.inv_rate                 0.0000 # invalidation rate (i.e., invs/ref)
dl2.accesses                2296841 # total number of accesses
dl2.hits                    1878558 # total number of hits
dl2.misses                   418283 # total number of misses
dl2.replacements             416235 # total number of replacements
dl2.writebacks                96028 # total number of writebacks
dl2.invalidations                 0 # total number of invalidations
dl2.miss_rate                0.1821 # miss rate (i.e., misses/ref)
dl2.repl_rate                0.1812 # replacement rate (i.e., repls/ref)
dl2.wb_rate                  0.0418 # writeback rate (i.e., wrbks/ref)
dl2.inv_rate                 0.0000 # invalidation rate (i.e., invs/ref)
itlb.accesses             116116332 # total number of accesses
itlb.hits                 116113732 # total number of hits
itlb.misses                    2600 # total number of misses
itlb.replacements              2541 # total number of replacements
itlb.writebacks                   0 # total number of writebacks
itlb.invalidations                0 # total number of invalidations
itlb.miss_rate               0.0000 # miss rate (i.e., misses/ref)
itlb.repl_rate               0.0000 # replacement rate (i.e., repls/ref)
itlb.wb_rate                 0.0000 # writeback rate (i.e., wrbks/ref)
itlb.inv_rate                0.0000 # invalidation rate (i.e., invs/ref)
dtlb.accesses              46161579 # total number of accesses
dtlb.hits                  46134069 # total number of hits
dtlb.misses                   27510 # total number of misses
dtlb.replacements             27383 # total number of replacements
dtlb.writebacks                   0 # total number of writebacks
dtlb.invalidations                0 # total number of invalidations
dtlb.miss_rate               0.0006 # miss rate (i.e., misses/ref)
dtlb.repl_rate               0.0006 # replacement rate (i.e., repls/ref)
dtlb.wb_rate                 0.0000 # writeback rate (i.e., wrbks/ref)
dtlb.inv_rate                0.0000 # invalidation rate (i.e., invs/ref)
rename_power           55117434.3627 # total power usage of rename unit
bpred_power            269123182.2483 # total power usage of bpred unit
window_power           1314462750.2008 # total power usage of instruction window
lsq_power              220275641.5425 # total power usage of load/store queue
regfile_power          288157761.0156 # total power usage of arch. regfile
icache_power           244608370.9994 # total power usage of icache
dcache_power           519349097.6282 # total power usage of dcache
dcache2_power          250287983.5432 # total power usage of dcache2
alu_power              1527806670.3914 # total power usage of alu
falu_power             1151917726.3680 # total power usage of falu
resultbus_power        726988080.9517 # total power usage of resultbus
clock_power            2528070811.0485 # total power usage of clock
avg_rename_power             0.6833 # avg power usage of rename unit
avg_bpred_power              3.3365 # avg power usage of bpred unit
avg_window_power            16.2962 # avg power usage of instruction window
avg_lsq_power                2.7309 # avg power usage of lsq
avg_regfile_power            3.5725 # avg power usage of arch. regfile
avg_icache_power             3.0326 # avg power usage of icache
avg_dcache_power             6.4387 # avg power usage of dcache
avg_dcache2_power            3.1030 # avg power usage of dcache2
avg_alu_power               18.9412 # avg power usage of alu
avg_falu_power              14.2810 # avg power usage of falu
avg_resultbus_power          9.0129 # avg power usage of resultbus
avg_clock_power             31.3421 # avg power usage of clock
fetch_stage_power      513731553.2478 # total power usage of fetch stage
dispatch_stage_power   55117434.3627 # total power usage of dispatch stage
issue_stage_power      4559170224.2578 # total power usage of issue stage
avg_fetch_power              6.3691 # average power of fetch unit per cycle
avg_dispatch_power           0.6833 # average power of dispatch unit per cycle
avg_issue_power             56.5229 # average power of issue unit per cycle
total_power            7944247783.9324 # total power per cycle
avg_total_power_cycle       98.4898 # average total power per cycle
avg_total_power_cycle_nofp_nod2      81.1058 # average total power per cycle
avg_total_power_insn        79.4425 # average total power per insn
avg_total_power_insn_nofp_nod2      65.4204 # average total power per insn
rename_power_cc1       23971779.5619 # total power usage of rename unit_cc1
bpred_power_cc1              0.0000 # total power usage of bpred unit_cc1
window_power_cc1       713689656.0943 # total power usage of instruction window_cc1
lsq_power_cc1          36311185.5604 # total power usage of lsq_cc1
regfile_power_cc1      125655412.0159 # total power usage of arch. regfile_cc1
icache_power_cc1       108760350.9102 # total power usage of icache_cc1
dcache_power_cc1       193313354.7587 # total power usage of dcache_cc1
dcache2_power_cc1      5906427.8508 # total power usage of dcache2_cc1
alu_power_cc1          188320703.9641 # total power usage of alu_cc1
resultbus_power_cc1    358381500.1769 # total power usage of resultbus_cc1
clock_power_cc1        854420962.2176 # total power usage of clock_cc1
avg_rename_power_cc1         0.2972 # avg power usage of rename unit_cc1
avg_bpred_power_cc1          0.0000 # avg power usage of bpred unit_cc1
avg_window_power_cc1         8.8481 # avg power usage of instruction window_cc1
avg_lsq_power_cc1            0.4502 # avg power usage of lsq_cc1
avg_regfile_power_cc1        1.5578 # avg power usage of arch. regfile_cc1
avg_icache_power_cc1         1.3484 # avg power usage of icache_cc1
avg_dcache_power_cc1         2.3966 # avg power usage of dcache_cc1
avg_dcache2_power_cc1        0.0732 # avg power usage of dcache2_cc1
avg_alu_power_cc1            2.3347 # avg power usage of alu_cc1
avg_resultbus_power_cc1       4.4431 # avg power usage of resultbus_cc1
avg_clock_power_cc1         10.5928 # avg power usage of clock_cc1
fetch_stage_power_cc1  108760350.9102 # total power usage of fetch stage_cc1
dispatch_stage_power_cc1 23971779.5619 # total power usage of dispatch stage_cc1
issue_stage_power_cc1  1495922828.4053 # total power usage of issue stage_cc1
avg_fetch_power_cc1          1.3484 # average power of fetch unit per cycle_cc1
avg_dispatch_power_cc1       0.2972 # average power of dispatch unit per cycle_cc1
avg_issue_power_cc1         18.5459 # average power of issue unit per cycle_cc1
total_power_cycle_cc1  2608731333.1109 # total power per cycle_cc1
avg_total_power_cycle_cc1      32.3421 # average total power per cycle_cc1
avg_total_power_insn_cc1      26.0873 # average total power per insn_cc1
rename_power_cc2       17083133.1978 # total power usage of rename unit_cc2
bpred_power_cc2              0.0000 # total power usage of bpred unit_cc2
window_power_cc2       605517998.3433 # total power usage of instruction window_cc2
lsq_power_cc2          24332390.5500 # total power usage of lsq_cc2
regfile_power_cc2      38282484.2966 # total power usage of arch. regfile_cc2
icache_power_cc2       108760350.9102 # total power usage of icache_cc2
dcache_power_cc2       146708751.4982 # total power usage of dcache_cc2
dcache2_power_cc2      3563522.1361 # total power usage of dcache2_cc2
alu_power_cc2          116736874.0625 # total power usage of alu_cc2
resultbus_power_cc2    244351017.8379 # total power usage of resultbus_cc2
clock_power_cc2        636401865.5284 # total power usage of clock_cc2
avg_rename_power_cc2         0.2118 # avg power usage of rename unit_cc2
avg_bpred_power_cc2          0.0000 # avg power usage of bpred unit_cc2
avg_window_power_cc2         7.5070 # avg power usage of instruction window_cc2
avg_lsq_power_cc2            0.3017 # avg power usage of instruction lsq_cc2
avg_regfile_power_cc2        0.4746 # avg power usage of arch. regfile_cc2
avg_icache_power_cc2         1.3484 # avg power usage of icache_cc2
avg_dcache_power_cc2         1.8188 # avg power usage of dcache_cc2
avg_dcache2_power_cc2        0.0442 # avg power usage of dcache2_cc2
avg_alu_power_cc2            1.4473 # avg power usage of alu_cc2
avg_resultbus_power_cc2       3.0294 # avg power usage of resultbus_cc2
avg_clock_power_cc2          7.8899 # avg power usage of clock_cc2
fetch_stage_power_cc2  108760350.9102 # total power usage of fetch stage_cc2
dispatch_stage_power_cc2 17083133.1978 # total power usage of dispatch stage_cc2
issue_stage_power_cc2  1141210554.4280 # total power usage of issue stage_cc2
avg_fetch_power_cc2          1.3484 # average power of fetch unit per cycle_cc2
avg_dispatch_power_cc2       0.2118 # average power of dispatch unit per cycle_cc2
avg_issue_power_cc2         14.1483 # average power of issue unit per cycle_cc2
total_power_cycle_cc2  1941738388.3610 # total power per cycle_cc2
avg_total_power_cycle_cc2      24.0729 # average total power per cycle_cc2
avg_total_power_insn_cc2      19.4174 # average total power per insn_cc2
rename_power_cc3       20197698.6749 # total power usage of rename unit_cc3
bpred_power_cc3        26912318.2662 # total power usage of bpred unit_cc3
window_power_cc3       665247882.9262 # total power usage of instruction window_cc3
lsq_power_cc3          42555944.7375 # total power usage of lsq_cc3
regfile_power_cc3      52947323.3288 # total power usage of arch. regfile_cc3
icache_power_cc3       122345152.8379 # total power usage of icache_cc3
dcache_power_cc3       180370900.1817 # total power usage of dcache_cc3
dcache2_power_cc3      28006816.6669 # total power usage of dcache2_cc3
alu_power_cc3          250685470.0764 # total power usage of alu_cc3
resultbus_power_cc3    278868652.3704 # total power usage of resultbus_cc3
clock_power_cc3        802127301.2310 # total power usage of clock_cc3
avg_rename_power_cc3         0.2504 # avg power usage of rename unit_cc3
avg_bpred_power_cc3          0.3336 # avg power usage of bpred unit_cc3
avg_window_power_cc3         8.2475 # avg power usage of instruction window_cc3
avg_lsq_power_cc3            0.5276 # avg power usage of instruction lsq_cc3
avg_regfile_power_cc3        0.6564 # avg power usage of arch. regfile_cc3
avg_icache_power_cc3         1.5168 # avg power usage of icache_cc3
avg_dcache_power_cc3         2.2362 # avg power usage of dcache_cc3
avg_dcache2_power_cc3        0.3472 # avg power usage of dcache2_cc3
avg_alu_power_cc3            3.1079 # avg power usage of alu_cc3
avg_resultbus_power_cc3       3.4573 # avg power usage of resultbus_cc3
avg_clock_power_cc3          9.9445 # avg power usage of clock_cc3
fetch_stage_power_cc3  149257471.1041 # total power usage of fetch stage_cc3
dispatch_stage_power_cc3 20197698.6749 # total power usage of dispatch stage_cc3
issue_stage_power_cc3  1445735666.9591 # total power usage of issue stage_cc3
avg_fetch_power_cc3          1.8504 # average power of fetch unit per cycle_cc3
avg_dispatch_power_cc3       0.2504 # average power of dispatch unit per cycle_cc3
avg_issue_power_cc3         17.9237 # average power of issue unit per cycle_cc3
total_power_cycle_cc3  2470265461.2979 # total power per cycle_cc3
avg_total_power_cycle_cc3      30.6254 # average total power per cycle_cc3
avg_total_power_insn_cc3      24.7027 # average total power per insn_cc3
total_rename_access       100000000 # total number accesses of rename unit
total_bpred_access                0 # total number accesses of bpred unit
total_window_access       396595152 # total number accesses of instruction window
total_lsq_access           46752207 # total number accesses of load/store queue
total_regfile_access      145809049 # total number accesses of arch. regfile
total_icache_access       116116332 # total number accesses of icache
total_dcache_access        45570953 # total number accesses of dcache
total_dcache2_access        2296841 # total number accesses of dcache2
total_alu_access           99999294 # total number accesses of alu
total_resultbus_access    115674346 # total number accesses of resultbus
avg_rename_access            1.2398 # avg number accesses of rename unit
avg_bpred_access             0.0000 # avg number accesses of bpred unit
avg_window_access            4.9168 # avg number accesses of instruction window
avg_lsq_access               0.5796 # avg number accesses of lsq
avg_regfile_access           1.8077 # avg number accesses of arch. regfile
avg_icache_access            1.4396 # avg number accesses of icache
avg_dcache_access            0.5650 # avg number accesses of dcache
avg_dcache2_access           0.0285 # avg number accesses of dcache2
avg_alu_access               1.2398 # avg number accesses of alu
avg_resultbus_access         1.4341 # avg number accesses of resultbus
max_rename_access                 4 # max number accesses of rename unit
max_bpred_access                  0 # max number accesses of bpred unit
max_window_access                17 # max number accesses of instruction window
max_lsq_access                    6 # max number accesses of load/store queue
max_regfile_access               12 # max number accesses of arch. regfile
max_icache_access                 4 # max number accesses of icache
max_dcache_access                 4 # max number accesses of dcache
max_dcache2_access                6 # max number accesses of dcache2
max_alu_access                    4 # max number accesses of alu
max_resultbus_access              8 # max number accesses of resultbus
max_cycle_power_cc1         78.0570 # maximum cycle power usage of cc1
max_cycle_power_cc2         63.6675 # maximum cycle power usage of cc2
max_cycle_power_cc3         66.7155 # maximum cycle power usage of cc3
sim_invalid_addrs                 0 # total non-speculative bogus addresses seen (debug var)
ld_text_base           0x0120000000 # program text (code) segment base
ld_text_size                 876544 # program text (code) size in bytes
ld_data_base           0x0140000000 # program initialized data segment base
ld_data_size                 131616 # program init'ed `.data' and uninit'ed `.bss' size in bytes
ld_stack_base          0x011ff9b000 # program stack segment base (highest address in stack)
ld_stack_size                 16384 # program initial stack size
ld_prog_entry          0x01200b4d58 # program entry point (initial PC)
ld_environ_base        0x011ff96b80 # program environment base address address
ld_target_big_endian              0 # target executable endian-ness, non-zero if big endian
mem.page_count                 4996 # total number of pages allocated
mem.page_mem                 39968k # total size of memory pages allocated
mem.ptab_misses              173706 # total first level page table misses
mem.ptab_accesses         922536916 # total page table accesses
mem.ptab_miss_rate           0.0002 # first level page table miss rate

