sim-outorder: SimpleScalar/Alpha Tool Set version 3.0 of August, 2003.
Copyright (c) 1994-2003 by Todd M. Austin, Ph.D. and SimpleScalar, LLC.
All Rights Reserved. This version of SimpleScalar is licensed for academic
non-commercial use.  No portion of this work may be used by any commercial
entity, or for any commercial purpose, without the prior written permission
of SimpleScalar, LLC (info@simplescalar.com).


Processor Parameters:
Issue Width: 4
Window Size: 16
Number of Virtual Registers: 32
Number of Physical Registers: 16
Datapath Width: 64
Total Power Consumption: 72.5417
Branch Predictor Power Consumption: 2.84969  (4.04%)
 branch target buffer power (W): 2.49493
 local predict power (W): 0.0879711
 global predict power (W): 0.0996078
 chooser power (W): 0.0702439
 RAS power (W): 0.0969383
Rename Logic Power Consumption: 0.417965  (0.593%)
 Instruction Decode Power (W): 0.0159915
 RAT decode_power (W): 0.113514
 RAT wordline_power (W): 0.0307815
 RAT bitline_power (W): 0.246771
 DCL Comparators (W): 0.0109075
Instruction Window Power Consumption: 2.20432  (3.12%)
 tagdrive (W): 0.0943488
 tagmatch (W): 0.033695
 Selection Logic (W): 0.0134217
 decode_power (W): 0.0532503
 wordline_power (W): 0.0844643
 bitline_power (W): 1.92514
Load/Store Queue Power Consumption: 0.96318  (1.37%)
 tagdrive (W): 0.457232
 tagmatch (W): 0.100774
 decode_power (W): 0.00799577
 wordline_power (W): 0.0150119
 bitline_power (W): 0.382166
Arch. Register File Power Consumption: 3.57247  (5.06%)
 decode_power (W): 0.113514
 wordline_power (W): 0.0844643
 bitline_power (W): 3.37449
Result Bus Power Consumption: 2.29754  (3.26%)
Total Clock Power: 26.7211  (37.9%)
Int ALU Power: 4.66013  (6.61%)
FP ALU Power: 14.281  (20.2%)
Instruction Cache Power Consumption: 2.76773  (3.92%)
 decode_power (W): 0.151353
 wordline_power (W): 0.180479
 bitline_power (W): 1.42251
 senseamp_power (W): 0.768
 tagarray_power (W): 0.245382
Itlb_power (W): 0.264834 (0.375%)
Data Cache Power Consumption: 5.53546  (7.85%)
 decode_power (W): 0.302705
 wordline_power (W): 0.360958
 bitline_power (W): 2.84503
 senseamp_power (W): 1.536
 tagarray_power (W): 0.490764
Dtlb_power (W): 0.903238 (1.28%)
Level 2 Cache Power Consumption: 3.10298 (4.4%)
 decode_power (W): 0.19487
 wordline_power (W): 0.0430878
 bitline_power (W): 1.77274
 senseamp_power (W): 0.192
 tagarray_power (W): 0.900275
sim: loading EIO file: ../benchmarks/253.perlbmk.makerand-ref.eio.gz
sim: command line: ./sim-outorder -config ../configs/current.config ../benchmarks/253.perlbmk.makerand-ref.eio.gz 

sim: simulation started @ Sun Nov 22 21:41:26 2015, options follow:

sim-outorder: This simulator implements a very detailed out-of-order issue
superscalar processor with a two-level memory system and speculative
execution support.  This simulator is a performance simulator, tracking the
latency of all pipeline operations.

# -config                     # load configuration from a file
# -dumpconfig                 # dump configuration to a file
# -h                    false # print help message    
# -v                    false # verbose operation     
# -d                    false # enable debug message  
# -i                    false # start in Dlite debugger
-seed                       1 # random number generator seed (0 for timer seed)
# -q                    false # initialize and terminate immediately
# -chkpt               <null> # restore EIO trace execution from <fname>
# -redir:sim     ../results/test/253.perlbmk.makerand-ref.eio.gz.out # redirect simulator output to file (non-interactive only)
# -redir:prog       /dev/null # redirect simulated program output to file
-nice                       0 # simulator scheduling priority
-freq            600000000.0000 # frequency             
-max:inst           100000000 # maximum number of inst's to execute
-fastfwd                    0 # number of insts skipped before timing starts
# -ptrace              <null> # generate pipetrace, i.e., <fname|stdout|stderr> <range>
-fetch:ifqsize              4 # instruction fetch queue size (in insts)
-fetch:mplat                3 # extra branch mis-prediction latency
-fetch:speed                1 # speed of front-end of machine relative to execution core
-bpred                perfect # branch predictor type {nottaken|taken|perfect|bimod|2lev|comb}
-bpred:bimod     2048 # bimodal predictor config (<table size>)
-bpred:2lev      1 1024 8 0 # 2-level predictor config (<l1size> <l2size> <hist_size> <xor>)
-bpred:comb      1024 # combining predictor config (<meta_table_size>)
-bpred:ras                  8 # return address stack size (0 for no return stack)
-bpred:btb       512 4 # BTB config (<num_sets> <associativity>)
# -bpred:spec_update       <null> # speculative predictors update in {ID|WB} (default non-spec)
-decode:width               4 # instruction decode B/W (insts/cycle)
-issue:width                4 # instruction issue B/W (insts/cycle)
-issue:inorder          false # run pipeline with in-order issue
-issue:wrongpath         true # issue instructions down wrong execution paths
-commit:width               4 # instruction commit B/W (insts/cycle)
-ruu:size                  16 # register update unit (RUU) size
-lsq:size                   8 # load/store queue (LSQ) size
-cache:dl1       dl1:32:64:8:f # l1 data cache config, i.e., {<config>|none}
-cache:dl1lat               1 # l1 data cache hit latency (in cycles)
-cache:dl2       dl2:256:64:8:f # l2 data cache config, i.e., {<config>|none}
-cache:dl2lat               2 # l2 data cache hit latency (in cycles)
-cache:il1       il1:32:64:8:f # l1 inst cache config, i.e., {<config>|dl1|dl2|none}
-cache:il1lat               1 # l1 instruction cache hit latency (in cycles)
-cache:il2                dl2 # l2 instruction cache config, i.e., {<config>|dl2|none}
-cache:il2lat               2 # l2 instruction cache hit latency (in cycles)
-cache:flush            false # flush caches on system calls
-cache:icompress        false # convert 64-bit inst addresses to 32-bit inst equivalents
-mem:lat         18 1 # memory access latency (<first_chunk> <inter_chunk>)
-mem:width                  8 # memory access bus width (in bytes)
-tlb:itlb        itlb:16:4096:4:l # instruction TLB config, i.e., {<config>|none}
-tlb:dtlb        dtlb:32:4096:4:l # data TLB config, i.e., {<config>|none}
-tlb:lat                   30 # inst/data TLB miss latency (in cycles)
-res:ialu                   4 # total number of integer ALU's available
-res:imult                  1 # total number of integer multiplier/dividers available
-res:memport                2 # total number of memory system ports available (to CPU)
-res:fpalu                  4 # total number of floating point ALU's available
-res:fpmult                 1 # total number of floating point multiplier/dividers available
# -pcstat              <null> # profile stat(s) against text addr's (mult uses ok)
-bugcompat              false # operate in backward-compatible bugs mode (for testing only)

  Pipetrace range arguments are formatted as follows:

    {{@|#}<start>}:{{@|#|+}<end>}

  Both ends of the range are optional, if neither are specified, the entire
  execution is traced.  Ranges that start with a `@' designate an address
  range to be traced, those that start with an `#' designate a cycle count
  range.  All other range values represent an instruction count range.  The
  second argument, if specified with a `+', indicates a value relative
  to the first argument, e.g., 1000:+100 == 1000:1100.  Program symbols may
  be used in all contexts.

    Examples:   -ptrace FOO.trc #0:#1000
                -ptrace BAR.trc @2000:
                -ptrace BLAH.trc :1500
                -ptrace UXXE.trc :
                -ptrace FOOBAR.trc @main:+278

  Branch predictor configuration examples for 2-level predictor:
    Configurations:   N, M, W, X
      N   # entries in first level (# of shift register(s))
      W   width of shift register(s)
      M   # entries in 2nd level (# of counters, or other FSM)
      X   (yes-1/no-0) xor history and address for 2nd level index
    Sample predictors:
      GAg     : 1, W, 2^W, 0
      GAp     : 1, W, M (M > 2^W), 0
      PAg     : N, W, 2^W, 0
      PAp     : N, W, M (M == 2^(N+W)), 0
      gshare  : 1, W, 2^W, 1
  Predictor `comb' combines a bimodal and a 2-level predictor.

  The cache config parameter <config> has the following format:

    <name>:<nsets>:<bsize>:<assoc>:<repl>

    <name>   - name of the cache being defined
    <nsets>  - number of sets in the cache
    <bsize>  - block size of the cache
    <assoc>  - associativity of the cache
    <repl>   - block replacement strategy, 'l'-LRU, 'f'-FIFO, 'r'-random

    Examples:   -cache:dl1 dl1:4096:32:1:l
                -dtlb dtlb:128:4096:32:r

  Cache levels can be unified by pointing a level of the instruction cache
  hierarchy at the data cache hiearchy using the "dl1" and "dl2" cache
  configuration arguments.  Most sensible combinations are supported, e.g.,

    A unified l2 cache (il2 is pointed at dl2):
      -cache:il1 il1:128:64:1:l -cache:il2 dl2
      -cache:dl1 dl1:256:32:1:l -cache:dl2 ul2:1024:64:2:l

    Or, a fully unified cache hierarchy (il1 pointed at dl1):
      -cache:il1 dl1
      -cache:dl1 ul1:256:32:1:l -cache:dl2 ul2:1024:64:2:l



sim: ** starting performance simulation **

sim: ** simulation statistics **
sim_num_insn              100000000 # total number of instructions committed
sim_num_refs               40095830 # total number of loads and stores committed
sim_num_loads              29946759 # total number of loads committed
sim_num_stores         10149071.0000 # total number of stores committed
sim_num_branches           13420683 # total number of branches committed
sim_elapsed_time                106 # total simulation time in seconds
sim_inst_rate           943396.2264 # simulation speed (in insts/sec)
sim_total_insn            100000000 # total number of instructions executed
sim_total_refs             40095830 # total number of loads and stores executed
sim_total_loads            29946759 # total number of loads executed
sim_total_stores       10149071.0000 # total number of stores executed
sim_total_branches         13420683 # total number of branches executed
sim_cycle                  47251289 # total simulation time in cycles
sim_IPC                      2.1163 # instructions per cycle
sim_CPI                      0.4725 # cycles per instruction
sim_exec_BW                  2.1163 # total instructions (mis-spec + committed) per cycle
sim_IPB                      7.4512 # instruction per branch
IFQ_count                 188180320 # cumulative IFQ occupancy
IFQ_fcount                 47041081 # cumulative IFQ full count
ifq_occupancy                3.9825 # avg IFQ occupancy (insn's)
ifq_rate                     2.1163 # avg IFQ dispatch rate (insn/cycle)
ifq_latency                  1.8818 # avg IFQ occupant latency (cycle's)
ifq_full                     0.9956 # fraction of time (cycle's) IFQ was full
RUU_count                 655584841 # cumulative RUU occupancy
RUU_fcount                 19080609 # cumulative RUU full count
ruu_occupancy               13.8744 # avg RUU occupancy (insn's)
ruu_rate                     2.1163 # avg RUU dispatch rate (insn/cycle)
ruu_latency                  6.5558 # avg RUU occupant latency (cycle's)
ruu_full                     0.4038 # fraction of time (cycle's) RUU was full
LSQ_count                 251116748 # cumulative LSQ occupancy
LSQ_fcount                 15014698 # cumulative LSQ full count
lsq_occupancy                5.3145 # avg LSQ occupancy (insn's)
lsq_rate                     2.1163 # avg LSQ dispatch rate (insn/cycle)
lsq_latency                  2.5112 # avg LSQ occupant latency (cycle's)
lsq_full                     0.3178 # fraction of time (cycle's) LSQ was full
sim_slip                 1046797303 # total number of slip cycles
avg_sim_slip                10.4680 # the average slip between issue and retirement
il1.accesses              117360156 # total number of accesses
il1.hits                  117344428 # total number of hits
il1.misses                    15728 # total number of misses
il1.replacements              15483 # total number of replacements
il1.writebacks                    0 # total number of writebacks
il1.invalidations                 0 # total number of invalidations
il1.miss_rate                0.0001 # miss rate (i.e., misses/ref)
il1.repl_rate                0.0001 # replacement rate (i.e., repls/ref)
il1.wb_rate                  0.0000 # writeback rate (i.e., wrbks/ref)
il1.inv_rate                 0.0000 # invalidation rate (i.e., invs/ref)
dl1.accesses               38564540 # total number of accesses
dl1.hits                   38471900 # total number of hits
dl1.misses                    92640 # total number of misses
dl1.replacements              92384 # total number of replacements
dl1.writebacks                 7451 # total number of writebacks
dl1.invalidations                 0 # total number of invalidations
dl1.miss_rate                0.0024 # miss rate (i.e., misses/ref)
dl1.repl_rate                0.0024 # replacement rate (i.e., repls/ref)
dl1.wb_rate                  0.0002 # writeback rate (i.e., wrbks/ref)
dl1.inv_rate                 0.0000 # invalidation rate (i.e., invs/ref)
dl2.accesses                 115819 # total number of accesses
dl2.hits                      51160 # total number of hits
dl2.misses                    64659 # total number of misses
dl2.replacements              62611 # total number of replacements
dl2.writebacks                 1383 # total number of writebacks
dl2.invalidations                 0 # total number of invalidations
dl2.miss_rate                0.5583 # miss rate (i.e., misses/ref)
dl2.repl_rate                0.5406 # replacement rate (i.e., repls/ref)
dl2.wb_rate                  0.0119 # writeback rate (i.e., wrbks/ref)
dl2.inv_rate                 0.0000 # invalidation rate (i.e., invs/ref)
itlb.accesses             117360156 # total number of accesses
itlb.hits                 117360126 # total number of hits
itlb.misses                      30 # total number of misses
itlb.replacements                 0 # total number of replacements
itlb.writebacks                   0 # total number of writebacks
itlb.invalidations                0 # total number of invalidations
itlb.miss_rate               0.0000 # miss rate (i.e., misses/ref)
itlb.repl_rate               0.0000 # replacement rate (i.e., repls/ref)
itlb.wb_rate                 0.0000 # writeback rate (i.e., wrbks/ref)
itlb.inv_rate                0.0000 # invalidation rate (i.e., invs/ref)
dtlb.accesses              40095830 # total number of accesses
dtlb.hits                  40063873 # total number of hits
dtlb.misses                   31957 # total number of misses
dtlb.replacements             31829 # total number of replacements
dtlb.writebacks                   0 # total number of writebacks
dtlb.invalidations                0 # total number of invalidations
dtlb.miss_rate               0.0008 # miss rate (i.e., misses/ref)
dtlb.repl_rate               0.0008 # replacement rate (i.e., repls/ref)
dtlb.wb_rate                 0.0000 # writeback rate (i.e., wrbks/ref)
dtlb.inv_rate                0.0000 # invalidation rate (i.e., invs/ref)
rename_power           19749408.0025 # total power usage of rename unit
bpred_power            134651476.1694 # total power usage of bpred unit
window_power           104156933.8548 # total power usage of instruction window
lsq_power              45511495.9735 # total power usage of load/store queue
regfile_power          168803911.8762 # total power usage of arch. regfile
icache_power           143292513.4205 # total power usage of icache
dcache_power           304236675.4063 # total power usage of dcache
dcache2_power          146619652.1201 # total power usage of dcache2
alu_power              894994954.0096 # total power usage of alu
falu_power             674797782.4885 # total power usage of falu
resultbus_power        108561862.8874 # total power usage of resultbus
clock_power            1262605652.9053 # total power usage of clock
avg_rename_power             0.4180 # avg power usage of rename unit
avg_bpred_power              2.8497 # avg power usage of bpred unit
avg_window_power             2.2043 # avg power usage of instruction window
avg_lsq_power                0.9632 # avg power usage of lsq
avg_regfile_power            3.5725 # avg power usage of arch. regfile
avg_icache_power             3.0326 # avg power usage of icache
avg_dcache_power             6.4387 # avg power usage of dcache
avg_dcache2_power            3.1030 # avg power usage of dcache2
avg_alu_power               18.9412 # avg power usage of alu
avg_falu_power              14.2810 # avg power usage of falu
avg_resultbus_power          2.2975 # avg power usage of resultbus
avg_clock_power             26.7211 # avg power usage of clock
fetch_stage_power      277943989.5899 # total power usage of fetch stage
dispatch_stage_power   19749408.0025 # total power usage of dispatch stage
issue_stage_power      1604081574.2517 # total power usage of issue stage
avg_fetch_power              5.8823 # average power of fetch unit per cycle
avg_dispatch_power           0.4180 # average power of dispatch unit per cycle
avg_issue_power             33.9479 # average power of issue unit per cycle
total_power            3333184536.6255 # total power per cycle
avg_total_power_cycle       70.5417 # average total power per cycle
avg_total_power_cycle_nofp_nod2      53.1576 # average total power per cycle
avg_total_power_insn        33.3318 # average total power per insn
avg_total_power_insn_nofp_nod2      25.1177 # average total power per insn
rename_power_cc1       16941460.6917 # total power usage of rename unit_cc1
bpred_power_cc1              0.0000 # total power usage of bpred unit_cc1
window_power_cc1       97287376.2611 # total power usage of instruction window_cc1
lsq_power_cc1          15615228.5224 # total power usage of lsq_cc1
regfile_power_cc1      131337557.9374 # total power usage of arch. regfile_cc1
icache_power_cc1       122949103.9252 # total power usage of icache_cc1
dcache_power_cc1       167468062.8596 # total power usage of dcache_cc1
dcache2_power_cc1       334081.9942 # total power usage of dcache2_cc1
alu_power_cc1          218829673.6265 # total power usage of alu_cc1
resultbus_power_cc1    97349001.6300 # total power usage of resultbus_cc1
clock_power_cc1        568834608.7350 # total power usage of clock_cc1
avg_rename_power_cc1         0.3585 # avg power usage of rename unit_cc1
avg_bpred_power_cc1          0.0000 # avg power usage of bpred unit_cc1
avg_window_power_cc1         2.0589 # avg power usage of instruction window_cc1
avg_lsq_power_cc1            0.3305 # avg power usage of lsq_cc1
avg_regfile_power_cc1        2.7796 # avg power usage of arch. regfile_cc1
avg_icache_power_cc1         2.6020 # avg power usage of icache_cc1
avg_dcache_power_cc1         3.5442 # avg power usage of dcache_cc1
avg_dcache2_power_cc1        0.0071 # avg power usage of dcache2_cc1
avg_alu_power_cc1            4.6312 # avg power usage of alu_cc1
avg_resultbus_power_cc1       2.0602 # avg power usage of resultbus_cc1
avg_clock_power_cc1         12.0385 # avg power usage of clock_cc1
fetch_stage_power_cc1  122949103.9252 # total power usage of fetch stage_cc1
dispatch_stage_power_cc1 16941460.6917 # total power usage of dispatch stage_cc1
issue_stage_power_cc1  596883424.8938 # total power usage of issue stage_cc1
avg_fetch_power_cc1          2.6020 # average power of fetch unit per cycle_cc1
avg_dispatch_power_cc1       0.3585 # average power of dispatch unit per cycle_cc1
avg_issue_power_cc1         12.6321 # average power of issue unit per cycle_cc1
total_power_cycle_cc1  1436946156.1832 # total power per cycle_cc1
avg_total_power_cycle_cc1      30.4107 # average total power per cycle_cc1
avg_total_power_insn_cc1      14.3695 # average total power per insn_cc1
rename_power_cc2       10449137.1668 # total power usage of rename unit_cc2
bpred_power_cc2              0.0000 # total power usage of bpred unit_cc2
window_power_cc2       82928000.7902 # total power usage of instruction window_cc2
lsq_power_cc2          10409014.9051 # total power usage of lsq_cc2
regfile_power_cc2      35301872.0671 # total power usage of arch. regfile_cc2
icache_power_cc2       122949103.9252 # total power usage of icache_cc2
dcache_power_cc2       124152670.5658 # total power usage of dcache_cc2
dcache2_power_cc2       179691.8334 # total power usage of dcache2_cc2
alu_power_cc2          120826282.3488 # total power usage of alu_cc2
resultbus_power_cc2    62747726.2365 # total power usage of resultbus_cc2
clock_power_cc2        373471997.8654 # total power usage of clock_cc2
avg_rename_power_cc2         0.2211 # avg power usage of rename unit_cc2
avg_bpred_power_cc2          0.0000 # avg power usage of bpred unit_cc2
avg_window_power_cc2         1.7550 # avg power usage of instruction window_cc2
avg_lsq_power_cc2            0.2203 # avg power usage of instruction lsq_cc2
avg_regfile_power_cc2        0.7471 # avg power usage of arch. regfile_cc2
avg_icache_power_cc2         2.6020 # avg power usage of icache_cc2
avg_dcache_power_cc2         2.6275 # avg power usage of dcache_cc2
avg_dcache2_power_cc2        0.0038 # avg power usage of dcache2_cc2
avg_alu_power_cc2            2.5571 # avg power usage of alu_cc2
avg_resultbus_power_cc2       1.3280 # avg power usage of resultbus_cc2
avg_clock_power_cc2          7.9040 # avg power usage of clock_cc2
fetch_stage_power_cc2  122949103.9252 # total power usage of fetch stage_cc2
dispatch_stage_power_cc2 10449137.1668 # total power usage of dispatch stage_cc2
issue_stage_power_cc2  401243386.6798 # total power usage of issue stage_cc2
avg_fetch_power_cc2          2.6020 # average power of fetch unit per cycle_cc2
avg_dispatch_power_cc2       0.2211 # average power of dispatch unit per cycle_cc2
avg_issue_power_cc2          8.4917 # average power of issue unit per cycle_cc2
total_power_cycle_cc2  943415497.7044 # total power per cycle_cc2
avg_total_power_cycle_cc2      19.9659 # average total power per cycle_cc2
avg_total_power_insn_cc2       9.4342 # average total power per insn_cc2
rename_power_cc3       10729931.8965 # total power usage of rename unit_cc3
bpred_power_cc3        13465147.6326 # total power usage of bpred unit_cc3
window_power_cc3       83240555.0127 # total power usage of instruction window_cc3
lsq_power_cc3          13365197.0071 # total power usage of lsq_cc3
regfile_power_cc3      37384996.9871 # total power usage of arch. regfile_cc3
icache_power_cc3       124983444.8626 # total power usage of icache_cc3
dcache_power_cc3       138644657.8329 # total power usage of dcache_cc3
dcache2_power_cc3      14808277.0966 # total power usage of dcache2_cc3
alu_power_cc3          188442810.1352 # total power usage of alu_cc3
resultbus_power_cc3    63235551.8031 # total power usage of resultbus_cc3
clock_power_cc3        441610681.5227 # total power usage of clock_cc3
avg_rename_power_cc3         0.2271 # avg power usage of rename unit_cc3
avg_bpred_power_cc3          0.2850 # avg power usage of bpred unit_cc3
avg_window_power_cc3         1.7617 # avg power usage of instruction window_cc3
avg_lsq_power_cc3            0.2829 # avg power usage of instruction lsq_cc3
avg_regfile_power_cc3        0.7912 # avg power usage of arch. regfile_cc3
avg_icache_power_cc3         2.6451 # avg power usage of icache_cc3
avg_dcache_power_cc3         2.9342 # avg power usage of dcache_cc3
avg_dcache2_power_cc3        0.3134 # avg power usage of dcache2_cc3
avg_alu_power_cc3            3.9881 # avg power usage of alu_cc3
avg_resultbus_power_cc3       1.3383 # avg power usage of resultbus_cc3
avg_clock_power_cc3          9.3460 # avg power usage of clock_cc3
fetch_stage_power_cc3  138448592.4951 # total power usage of fetch stage_cc3
dispatch_stage_power_cc3 10729931.8965 # total power usage of dispatch stage_cc3
issue_stage_power_cc3  501737048.8876 # total power usage of issue stage_cc3
avg_fetch_power_cc3          2.9300 # average power of fetch unit per cycle_cc3
avg_dispatch_power_cc3       0.2271 # average power of dispatch unit per cycle_cc3
avg_issue_power_cc3         10.6185 # average power of issue unit per cycle_cc3
total_power_cycle_cc3  1129911251.7891 # total power per cycle_cc3
avg_total_power_cycle_cc3      23.9128 # average total power per cycle_cc3
avg_total_power_insn_cc3      11.2991 # average total power per insn_cc3
total_rename_access       100000000 # total number accesses of rename unit
total_bpred_access                0 # total number accesses of bpred unit
total_window_access       385036171 # total number accesses of instruction window
total_lsq_access           41627120 # total number accesses of load/store queue
total_regfile_access      133909406 # total number accesses of arch. regfile
total_icache_access       117360156 # total number accesses of icache
total_dcache_access        38564540 # total number accesses of dcache
total_dcache2_access         115819 # total number accesses of dcache2
total_alu_access           99999387 # total number accesses of alu
total_resultbus_access    116526065 # total number accesses of resultbus
avg_rename_access            2.1163 # avg number accesses of rename unit
avg_bpred_access             0.0000 # avg number accesses of bpred unit
avg_window_access            8.1487 # avg number accesses of instruction window
avg_lsq_access               0.8810 # avg number accesses of lsq
avg_regfile_access           2.8340 # avg number accesses of arch. regfile
avg_icache_access            2.4837 # avg number accesses of icache
avg_dcache_access            0.8162 # avg number accesses of dcache
avg_dcache2_access           0.0025 # avg number accesses of dcache2
avg_alu_access               2.1163 # avg number accesses of alu
avg_resultbus_access         2.4661 # avg number accesses of resultbus
max_rename_access                 4 # max number accesses of rename unit
max_bpred_access                  0 # max number accesses of bpred unit
max_window_access                16 # max number accesses of instruction window
max_lsq_access                    5 # max number accesses of load/store queue
max_regfile_access               12 # max number accesses of arch. regfile
max_icache_access                 4 # max number accesses of icache
max_dcache_access                 4 # max number accesses of dcache
max_dcache2_access                5 # max number accesses of dcache2
max_alu_access                    4 # max number accesses of alu
max_resultbus_access              6 # max number accesses of resultbus
max_cycle_power_cc1         50.8797 # maximum cycle power usage of cc1
max_cycle_power_cc2         33.4133 # maximum cycle power usage of cc2
max_cycle_power_cc3         36.6075 # maximum cycle power usage of cc3
sim_invalid_addrs                 0 # total non-speculative bogus addresses seen (debug var)
ld_text_base           0x0120000000 # program text (code) segment base
ld_text_size                 876544 # program text (code) size in bytes
ld_data_base           0x0140000000 # program initialized data segment base
ld_data_size                 131616 # program init'ed `.data' and uninit'ed `.bss' size in bytes
ld_stack_base          0x011ff9b000 # program stack segment base (highest address in stack)
ld_stack_size                 16384 # program initial stack size
ld_prog_entry          0x0120067d78 # program entry point (initial PC)
ld_environ_base        0x011ff96c80 # program environment base address address
ld_target_big_endian              0 # target executable endian-ness, non-zero if big endian
mem.page_count                 1161 # total number of pages allocated
mem.page_mem                  9288k # total size of memory pages allocated
mem.ptab_misses                2407 # total first level page table misses
mem.ptab_accesses         836151560 # total page table accesses
mem.ptab_miss_rate           0.0000 # first level page table miss rate

