sim-outorder: SimpleScalar/Alpha Tool Set version 3.0 of August, 2003.
Copyright (c) 1994-2003 by Todd M. Austin, Ph.D. and SimpleScalar, LLC.
All Rights Reserved. This version of SimpleScalar is licensed for academic
non-commercial use.  No portion of this work may be used by any commercial
entity, or for any commercial purpose, without the prior written permission
of SimpleScalar, LLC (info@simplescalar.com).


Processor Parameters:
Issue Width: 4
Window Size: 16
Number of Virtual Registers: 32
Number of Physical Registers: 16
Datapath Width: 64
Total Power Consumption: 72.5417
Branch Predictor Power Consumption: 2.84969  (4.04%)
 branch target buffer power (W): 2.49493
 local predict power (W): 0.0879711
 global predict power (W): 0.0996078
 chooser power (W): 0.0702439
 RAS power (W): 0.0969383
Rename Logic Power Consumption: 0.417965  (0.593%)
 Instruction Decode Power (W): 0.0159915
 RAT decode_power (W): 0.113514
 RAT wordline_power (W): 0.0307815
 RAT bitline_power (W): 0.246771
 DCL Comparators (W): 0.0109075
Instruction Window Power Consumption: 2.20432  (3.12%)
 tagdrive (W): 0.0943488
 tagmatch (W): 0.033695
 Selection Logic (W): 0.0134217
 decode_power (W): 0.0532503
 wordline_power (W): 0.0844643
 bitline_power (W): 1.92514
Load/Store Queue Power Consumption: 0.96318  (1.37%)
 tagdrive (W): 0.457232
 tagmatch (W): 0.100774
 decode_power (W): 0.00799577
 wordline_power (W): 0.0150119
 bitline_power (W): 0.382166
Arch. Register File Power Consumption: 3.57247  (5.06%)
 decode_power (W): 0.113514
 wordline_power (W): 0.0844643
 bitline_power (W): 3.37449
Result Bus Power Consumption: 2.29754  (3.26%)
Total Clock Power: 26.7211  (37.9%)
Int ALU Power: 4.66013  (6.61%)
FP ALU Power: 14.281  (20.2%)
Instruction Cache Power Consumption: 2.76773  (3.92%)
 decode_power (W): 0.151353
 wordline_power (W): 0.180479
 bitline_power (W): 1.42251
 senseamp_power (W): 0.768
 tagarray_power (W): 0.245382
Itlb_power (W): 0.264834 (0.375%)
Data Cache Power Consumption: 5.53546  (7.85%)
 decode_power (W): 0.302705
 wordline_power (W): 0.360958
 bitline_power (W): 2.84503
 senseamp_power (W): 1.536
 tagarray_power (W): 0.490764
Dtlb_power (W): 0.903238 (1.28%)
Level 2 Cache Power Consumption: 3.10298 (4.4%)
 decode_power (W): 0.19487
 wordline_power (W): 0.0430878
 bitline_power (W): 1.77274
 senseamp_power (W): 0.192
 tagarray_power (W): 0.900275
sim: loading EIO file: ../benchmarks/254.gap.spec_ref.eio.gz
sim: command line: ./sim-outorder -config ../configs/current.config ../benchmarks/254.gap.spec_ref.eio.gz 

sim: simulation started @ Sun Nov 22 21:41:36 2015, options follow:

sim-outorder: This simulator implements a very detailed out-of-order issue
superscalar processor with a two-level memory system and speculative
execution support.  This simulator is a performance simulator, tracking the
latency of all pipeline operations.

# -config                     # load configuration from a file
# -dumpconfig                 # dump configuration to a file
# -h                    false # print help message    
# -v                    false # verbose operation     
# -d                    false # enable debug message  
# -i                    false # start in Dlite debugger
-seed                       1 # random number generator seed (0 for timer seed)
# -q                    false # initialize and terminate immediately
# -chkpt               <null> # restore EIO trace execution from <fname>
# -redir:sim     ../results/test/254.gap.spec_ref.eio.gz.out # redirect simulator output to file (non-interactive only)
# -redir:prog       /dev/null # redirect simulated program output to file
-nice                       0 # simulator scheduling priority
-freq            600000000.0000 # frequency             
-max:inst           100000000 # maximum number of inst's to execute
-fastfwd                    0 # number of insts skipped before timing starts
# -ptrace              <null> # generate pipetrace, i.e., <fname|stdout|stderr> <range>
-fetch:ifqsize              4 # instruction fetch queue size (in insts)
-fetch:mplat                3 # extra branch mis-prediction latency
-fetch:speed                1 # speed of front-end of machine relative to execution core
-bpred                perfect # branch predictor type {nottaken|taken|perfect|bimod|2lev|comb}
-bpred:bimod     2048 # bimodal predictor config (<table size>)
-bpred:2lev      1 1024 8 0 # 2-level predictor config (<l1size> <l2size> <hist_size> <xor>)
-bpred:comb      1024 # combining predictor config (<meta_table_size>)
-bpred:ras                  8 # return address stack size (0 for no return stack)
-bpred:btb       512 4 # BTB config (<num_sets> <associativity>)
# -bpred:spec_update       <null> # speculative predictors update in {ID|WB} (default non-spec)
-decode:width               4 # instruction decode B/W (insts/cycle)
-issue:width                4 # instruction issue B/W (insts/cycle)
-issue:inorder          false # run pipeline with in-order issue
-issue:wrongpath         true # issue instructions down wrong execution paths
-commit:width               4 # instruction commit B/W (insts/cycle)
-ruu:size                  16 # register update unit (RUU) size
-lsq:size                   8 # load/store queue (LSQ) size
-cache:dl1       dl1:32:64:8:f # l1 data cache config, i.e., {<config>|none}
-cache:dl1lat               1 # l1 data cache hit latency (in cycles)
-cache:dl2       dl2:256:64:8:f # l2 data cache config, i.e., {<config>|none}
-cache:dl2lat               2 # l2 data cache hit latency (in cycles)
-cache:il1       il1:32:64:8:f # l1 inst cache config, i.e., {<config>|dl1|dl2|none}
-cache:il1lat               1 # l1 instruction cache hit latency (in cycles)
-cache:il2                dl2 # l2 instruction cache config, i.e., {<config>|dl2|none}
-cache:il2lat               2 # l2 instruction cache hit latency (in cycles)
-cache:flush            false # flush caches on system calls
-cache:icompress        false # convert 64-bit inst addresses to 32-bit inst equivalents
-mem:lat         18 1 # memory access latency (<first_chunk> <inter_chunk>)
-mem:width                  8 # memory access bus width (in bytes)
-tlb:itlb        itlb:16:4096:4:l # instruction TLB config, i.e., {<config>|none}
-tlb:dtlb        dtlb:32:4096:4:l # data TLB config, i.e., {<config>|none}
-tlb:lat                   30 # inst/data TLB miss latency (in cycles)
-res:ialu                   4 # total number of integer ALU's available
-res:imult                  1 # total number of integer multiplier/dividers available
-res:memport                2 # total number of memory system ports available (to CPU)
-res:fpalu                  4 # total number of floating point ALU's available
-res:fpmult                 1 # total number of floating point multiplier/dividers available
# -pcstat              <null> # profile stat(s) against text addr's (mult uses ok)
-bugcompat              false # operate in backward-compatible bugs mode (for testing only)

  Pipetrace range arguments are formatted as follows:

    {{@|#}<start>}:{{@|#|+}<end>}

  Both ends of the range are optional, if neither are specified, the entire
  execution is traced.  Ranges that start with a `@' designate an address
  range to be traced, those that start with an `#' designate a cycle count
  range.  All other range values represent an instruction count range.  The
  second argument, if specified with a `+', indicates a value relative
  to the first argument, e.g., 1000:+100 == 1000:1100.  Program symbols may
  be used in all contexts.

    Examples:   -ptrace FOO.trc #0:#1000
                -ptrace BAR.trc @2000:
                -ptrace BLAH.trc :1500
                -ptrace UXXE.trc :
                -ptrace FOOBAR.trc @main:+278

  Branch predictor configuration examples for 2-level predictor:
    Configurations:   N, M, W, X
      N   # entries in first level (# of shift register(s))
      W   width of shift register(s)
      M   # entries in 2nd level (# of counters, or other FSM)
      X   (yes-1/no-0) xor history and address for 2nd level index
    Sample predictors:
      GAg     : 1, W, 2^W, 0
      GAp     : 1, W, M (M > 2^W), 0
      PAg     : N, W, 2^W, 0
      PAp     : N, W, M (M == 2^(N+W)), 0
      gshare  : 1, W, 2^W, 1
  Predictor `comb' combines a bimodal and a 2-level predictor.

  The cache config parameter <config> has the following format:

    <name>:<nsets>:<bsize>:<assoc>:<repl>

    <name>   - name of the cache being defined
    <nsets>  - number of sets in the cache
    <bsize>  - block size of the cache
    <assoc>  - associativity of the cache
    <repl>   - block replacement strategy, 'l'-LRU, 'f'-FIFO, 'r'-random

    Examples:   -cache:dl1 dl1:4096:32:1:l
                -dtlb dtlb:128:4096:32:r

  Cache levels can be unified by pointing a level of the instruction cache
  hierarchy at the data cache hiearchy using the "dl1" and "dl2" cache
  configuration arguments.  Most sensible combinations are supported, e.g.,

    A unified l2 cache (il2 is pointed at dl2):
      -cache:il1 il1:128:64:1:l -cache:il2 dl2
      -cache:dl1 dl1:256:32:1:l -cache:dl2 ul2:1024:64:2:l

    Or, a fully unified cache hierarchy (il1 pointed at dl1):
      -cache:il1 dl1
      -cache:dl1 ul1:256:32:1:l -cache:dl2 ul2:1024:64:2:l



sim: ** starting performance simulation **

sim: ** simulation statistics **
sim_num_insn              100000000 # total number of instructions committed
sim_num_refs               38627056 # total number of loads and stores committed
sim_num_loads              28651457 # total number of loads committed
sim_num_stores         9975599.0000 # total number of stores committed
sim_num_branches           12668151 # total number of branches committed
sim_elapsed_time                 95 # total simulation time in seconds
sim_inst_rate          1052631.5789 # simulation speed (in insts/sec)
sim_total_insn            100000000 # total number of instructions executed
sim_total_refs             38627056 # total number of loads and stores executed
sim_total_loads            28651457 # total number of loads executed
sim_total_stores       9975599.0000 # total number of stores executed
sim_total_branches         12668151 # total number of branches executed
sim_cycle                  45135787 # total simulation time in cycles
sim_IPC                      2.2155 # instructions per cycle
sim_CPI                      0.4514 # cycles per instruction
sim_exec_BW                  2.2155 # total instructions (mis-spec + committed) per cycle
sim_IPB                      7.8938 # instruction per branch
IFQ_count                 180284993 # cumulative IFQ occupancy
IFQ_fcount                 45070132 # cumulative IFQ full count
ifq_occupancy                3.9943 # avg IFQ occupancy (insn's)
ifq_rate                     2.2155 # avg IFQ dispatch rate (insn/cycle)
ifq_latency                  1.8028 # avg IFQ occupant latency (cycle's)
ifq_full                     0.9985 # fraction of time (cycle's) IFQ was full
RUU_count                 643063067 # cumulative RUU occupancy
RUU_fcount                 21456011 # cumulative RUU full count
ruu_occupancy               14.2473 # avg RUU occupancy (insn's)
ruu_rate                     2.2155 # avg RUU dispatch rate (insn/cycle)
ruu_latency                  6.4306 # avg RUU occupant latency (cycle's)
ruu_full                     0.4754 # fraction of time (cycle's) RUU was full
LSQ_count                 262720330 # cumulative LSQ occupancy
LSQ_fcount                 10643101 # cumulative LSQ full count
lsq_occupancy                5.8207 # avg LSQ occupancy (insn's)
lsq_rate                     2.2155 # avg LSQ dispatch rate (insn/cycle)
lsq_latency                  2.6272 # avg LSQ occupant latency (cycle's)
lsq_full                     0.2358 # fraction of time (cycle's) LSQ was full
sim_slip                 1044410353 # total number of slip cycles
avg_sim_slip                10.4441 # the average slip between issue and retirement
il1.accesses              115273503 # total number of accesses
il1.hits                  115270853 # total number of hits
il1.misses                     2650 # total number of misses
il1.replacements               2417 # total number of replacements
il1.writebacks                    0 # total number of writebacks
il1.invalidations                 0 # total number of invalidations
il1.miss_rate                0.0000 # miss rate (i.e., misses/ref)
il1.repl_rate                0.0000 # replacement rate (i.e., repls/ref)
il1.wb_rate                  0.0000 # writeback rate (i.e., wrbks/ref)
il1.inv_rate                 0.0000 # invalidation rate (i.e., invs/ref)
dl1.accesses               38063342 # total number of accesses
dl1.hits                   37893131 # total number of hits
dl1.misses                   170211 # total number of misses
dl1.replacements             169955 # total number of replacements
dl1.writebacks               141637 # total number of writebacks
dl1.invalidations                 0 # total number of invalidations
dl1.miss_rate                0.0045 # miss rate (i.e., misses/ref)
dl1.repl_rate                0.0045 # replacement rate (i.e., repls/ref)
dl1.wb_rate                  0.0037 # writeback rate (i.e., wrbks/ref)
dl1.inv_rate                 0.0000 # invalidation rate (i.e., invs/ref)
dl2.accesses                 314498 # total number of accesses
dl2.hits                     178430 # total number of hits
dl2.misses                   136068 # total number of misses
dl2.replacements             134020 # total number of replacements
dl2.writebacks               128034 # total number of writebacks
dl2.invalidations                 0 # total number of invalidations
dl2.miss_rate                0.4327 # miss rate (i.e., misses/ref)
dl2.repl_rate                0.4261 # replacement rate (i.e., repls/ref)
dl2.wb_rate                  0.4071 # writeback rate (i.e., wrbks/ref)
dl2.inv_rate                 0.0000 # invalidation rate (i.e., invs/ref)
itlb.accesses             115273503 # total number of accesses
itlb.hits                 115273484 # total number of hits
itlb.misses                      19 # total number of misses
itlb.replacements                 0 # total number of replacements
itlb.writebacks                   0 # total number of writebacks
itlb.invalidations                0 # total number of invalidations
itlb.miss_rate               0.0000 # miss rate (i.e., misses/ref)
itlb.repl_rate               0.0000 # replacement rate (i.e., repls/ref)
itlb.wb_rate                 0.0000 # writeback rate (i.e., wrbks/ref)
itlb.inv_rate                0.0000 # invalidation rate (i.e., invs/ref)
dtlb.accesses              38627049 # total number of accesses
dtlb.hits                  38624864 # total number of hits
dtlb.misses                    2185 # total number of misses
dtlb.replacements              2057 # total number of replacements
dtlb.writebacks                   0 # total number of writebacks
dtlb.invalidations                0 # total number of invalidations
dtlb.miss_rate               0.0001 # miss rate (i.e., misses/ref)
dtlb.repl_rate               0.0001 # replacement rate (i.e., repls/ref)
dtlb.wb_rate                 0.0000 # writeback rate (i.e., wrbks/ref)
dtlb.inv_rate                0.0000 # invalidation rate (i.e., invs/ref)
rename_power           18865201.1795 # total power usage of rename unit
bpred_power            128622953.5023 # total power usage of bpred unit
window_power           99493691.7185 # total power usage of instruction window
lsq_power              43473886.7769 # total power usage of load/store queue
regfile_power          161246340.0132 # total power usage of arch. regfile
icache_power           136877120.2008 # total power usage of icache
dcache_power           290615601.5885 # total power usage of dcache
dcache2_power          140055298.5588 # total power usage of dcache2
alu_power              854924859.4399 # total power usage of alu
falu_power             644586203.3134 # total power usage of falu
resultbus_power        103701406.3193 # total power usage of resultbus
clock_power            1206077146.5161 # total power usage of clock
avg_rename_power             0.4180 # avg power usage of rename unit
avg_bpred_power              2.8497 # avg power usage of bpred unit
avg_window_power             2.2043 # avg power usage of instruction window
avg_lsq_power                0.9632 # avg power usage of lsq
avg_regfile_power            3.5725 # avg power usage of arch. regfile
avg_icache_power             3.0326 # avg power usage of icache
avg_dcache_power             6.4387 # avg power usage of dcache
avg_dcache2_power            3.1030 # avg power usage of dcache2
avg_alu_power               18.9412 # avg power usage of alu
avg_falu_power              14.2810 # avg power usage of falu
avg_resultbus_power          2.2975 # avg power usage of resultbus
avg_clock_power             26.7211 # avg power usage of clock
fetch_stage_power      265500073.7031 # total power usage of fetch stage
dispatch_stage_power   18865201.1795 # total power usage of dispatch stage
issue_stage_power      1532264744.4020 # total power usage of issue stage
avg_fetch_power              5.8823 # average power of fetch unit per cycle
avg_dispatch_power           0.4180 # average power of dispatch unit per cycle
avg_issue_power             33.9479 # average power of issue unit per cycle
total_power            3183953505.8139 # total power per cycle
avg_total_power_cycle       70.5417 # average total power per cycle
avg_total_power_cycle_nofp_nod2      53.1576 # average total power per cycle
avg_total_power_insn        31.8395 # average total power per insn
avg_total_power_insn_nofp_nod2      23.9931 # average total power per insn
rename_power_cc1       16050815.1105 # total power usage of rename unit_cc1
bpred_power_cc1              0.0000 # total power usage of bpred unit_cc1
window_power_cc1       94349153.5166 # total power usage of instruction window_cc1
lsq_power_cc1          15219973.3531 # total power usage of lsq_cc1
regfile_power_cc1      122439169.7444 # total power usage of arch. regfile_cc1
icache_power_cc1       116462157.3801 # total power usage of icache_cc1
dcache_power_cc1       178467219.2747 # total power usage of dcache_cc1
dcache2_power_cc1       536273.5121 # total power usage of dcache2_cc1
alu_power_cc1          192376395.4921 # total power usage of alu_cc1
resultbus_power_cc1    94407759.7386 # total power usage of resultbus_cc1
clock_power_cc1        544422933.4218 # total power usage of clock_cc1
avg_rename_power_cc1         0.3556 # avg power usage of rename unit_cc1
avg_bpred_power_cc1          0.0000 # avg power usage of bpred unit_cc1
avg_window_power_cc1         2.0903 # avg power usage of instruction window_cc1
avg_lsq_power_cc1            0.3372 # avg power usage of lsq_cc1
avg_regfile_power_cc1        2.7127 # avg power usage of arch. regfile_cc1
avg_icache_power_cc1         2.5803 # avg power usage of icache_cc1
avg_dcache_power_cc1         3.9540 # avg power usage of dcache_cc1
avg_dcache2_power_cc1        0.0119 # avg power usage of dcache2_cc1
avg_alu_power_cc1            4.2622 # avg power usage of alu_cc1
avg_resultbus_power_cc1       2.0916 # avg power usage of resultbus_cc1
avg_clock_power_cc1         12.0619 # avg power usage of clock_cc1
fetch_stage_power_cc1  116462157.3801 # total power usage of fetch stage_cc1
dispatch_stage_power_cc1 16050815.1105 # total power usage of dispatch stage_cc1
issue_stage_power_cc1  575356774.8872 # total power usage of issue stage_cc1
avg_fetch_power_cc1          2.5803 # average power of fetch unit per cycle_cc1
avg_dispatch_power_cc1       0.3556 # average power of dispatch unit per cycle_cc1
avg_issue_power_cc1         12.7472 # average power of issue unit per cycle_cc1
total_power_cycle_cc1  1374731850.5440 # total power per cycle_cc1
avg_total_power_cycle_cc1      30.4577 # average total power per cycle_cc1
avg_total_power_insn_cc1      13.7473 # average total power per insn_cc1
rename_power_cc2       10449137.1668 # total power usage of rename unit_cc2
bpred_power_cc2              0.0000 # total power usage of bpred unit_cc2
window_power_cc2       81882426.1719 # total power usage of instruction window_cc2
lsq_power_cc2          9832443.6761 # total power usage of lsq_cc2
regfile_power_cc2      35586293.0259 # total power usage of arch. regfile_cc2
icache_power_cc2       116462157.3801 # total power usage of icache_cc2
dcache_power_cc2       122539139.8503 # total power usage of dcache_cc2
dcache2_power_cc2       487939.9944 # total power usage of dcache2_cc2
alu_power_cc2          116516069.3326 # total power usage of alu_cc2
resultbus_power_cc2    62455451.3183 # total power usage of resultbus_cc2
clock_power_cc2        364610321.3429 # total power usage of clock_cc2
avg_rename_power_cc2         0.2315 # avg power usage of rename unit_cc2
avg_bpred_power_cc2          0.0000 # avg power usage of bpred unit_cc2
avg_window_power_cc2         1.8141 # avg power usage of instruction window_cc2
avg_lsq_power_cc2            0.2178 # avg power usage of instruction lsq_cc2
avg_regfile_power_cc2        0.7884 # avg power usage of arch. regfile_cc2
avg_icache_power_cc2         2.5803 # avg power usage of icache_cc2
avg_dcache_power_cc2         2.7149 # avg power usage of dcache_cc2
avg_dcache2_power_cc2        0.0108 # avg power usage of dcache2_cc2
avg_alu_power_cc2            2.5815 # avg power usage of alu_cc2
avg_resultbus_power_cc2       1.3837 # avg power usage of resultbus_cc2
avg_clock_power_cc2          8.0781 # avg power usage of clock_cc2
fetch_stage_power_cc2  116462157.3801 # total power usage of fetch stage_cc2
dispatch_stage_power_cc2 10449137.1668 # total power usage of dispatch stage_cc2
issue_stage_power_cc2  393713470.3437 # total power usage of issue stage_cc2
avg_fetch_power_cc2          2.5803 # average power of fetch unit per cycle_cc2
avg_dispatch_power_cc2       0.2315 # average power of dispatch unit per cycle_cc2
avg_issue_power_cc2          8.7229 # average power of issue unit per cycle_cc2
total_power_cycle_cc2  920821379.2594 # total power per cycle_cc2
avg_total_power_cycle_cc2      20.4011 # average total power per cycle_cc2
avg_total_power_insn_cc2       9.2082 # average total power per insn_cc2
rename_power_cc3       10730575.7724 # total power usage of rename unit_cc3
bpred_power_cc3        12862295.3635 # total power usage of bpred unit_cc3
window_power_cc3       82050112.2552 # total power usage of instruction window_cc3
lsq_power_cc3          12616557.1327 # total power usage of lsq_cc3
regfile_power_cc3      37796869.1034 # total power usage of arch. regfile_cc3
icache_power_cc3       118503653.6504 # total power usage of icache_cc3
dcache_power_cc3       134190724.7996 # total power usage of dcache_cc3
dcache2_power_cc3      14439872.4556 # total power usage of dcache2_cc3
alu_power_cc3          182770915.4885 # total power usage of alu_cc3
resultbus_power_cc3    62756229.3223 # total power usage of resultbus_cc3
clock_power_cc3        429319045.4292 # total power usage of clock_cc3
avg_rename_power_cc3         0.2377 # avg power usage of rename unit_cc3
avg_bpred_power_cc3          0.2850 # avg power usage of bpred unit_cc3
avg_window_power_cc3         1.8179 # avg power usage of instruction window_cc3
avg_lsq_power_cc3            0.2795 # avg power usage of instruction lsq_cc3
avg_regfile_power_cc3        0.8374 # avg power usage of arch. regfile_cc3
avg_icache_power_cc3         2.6255 # avg power usage of icache_cc3
avg_dcache_power_cc3         2.9730 # avg power usage of dcache_cc3
avg_dcache2_power_cc3        0.3199 # avg power usage of dcache2_cc3
avg_alu_power_cc3            4.0494 # avg power usage of alu_cc3
avg_resultbus_power_cc3       1.3904 # avg power usage of resultbus_cc3
avg_clock_power_cc3          9.5117 # avg power usage of clock_cc3
fetch_stage_power_cc3  131365949.0139 # total power usage of fetch stage_cc3
dispatch_stage_power_cc3 10730575.7724 # total power usage of dispatch stage_cc3
issue_stage_power_cc3  488824411.4538 # total power usage of issue stage_cc3
avg_fetch_power_cc3          2.9105 # average power of fetch unit per cycle_cc3
avg_dispatch_power_cc3       0.2377 # average power of dispatch unit per cycle_cc3
avg_issue_power_cc3         10.8301 # average power of issue unit per cycle_cc3
total_power_cycle_cc3  1098036850.7727 # total power per cycle_cc3
avg_total_power_cycle_cc3      24.3274 # average total power per cycle_cc3
avg_total_power_insn_cc3      10.9804 # average total power per insn_cc3
total_rename_access       100000000 # total number accesses of rename unit
total_bpred_access                0 # total number accesses of bpred unit
total_window_access       383639136 # total number accesses of instruction window
total_lsq_access           39190756 # total number accesses of load/store queue
total_regfile_access      136202080 # total number accesses of arch. regfile
total_icache_access       115273503 # total number accesses of icache
total_dcache_access        38063342 # total number accesses of dcache
total_dcache2_access         314498 # total number accesses of dcache2
total_alu_access           99999996 # total number accesses of alu
total_resultbus_access    115983294 # total number accesses of resultbus
avg_rename_access            2.2155 # avg number accesses of rename unit
avg_bpred_access             0.0000 # avg number accesses of bpred unit
avg_window_access            8.4997 # avg number accesses of instruction window
avg_lsq_access               0.8683 # avg number accesses of lsq
avg_regfile_access           3.0176 # avg number accesses of arch. regfile
avg_icache_access            2.5539 # avg number accesses of icache
avg_dcache_access            0.8433 # avg number accesses of dcache
avg_dcache2_access           0.0070 # avg number accesses of dcache2
avg_alu_access               2.2155 # avg number accesses of alu
avg_resultbus_access         2.5697 # avg number accesses of resultbus
max_rename_access                 4 # max number accesses of rename unit
max_bpred_access                  0 # max number accesses of bpred unit
max_window_access                17 # max number accesses of instruction window
max_lsq_access                    5 # max number accesses of load/store queue
max_regfile_access               11 # max number accesses of arch. regfile
max_icache_access                 4 # max number accesses of icache
max_dcache_access                 4 # max number accesses of dcache
max_dcache2_access                4 # max number accesses of dcache2
max_alu_access                    4 # max number accesses of alu
max_resultbus_access              8 # max number accesses of resultbus
max_cycle_power_cc1         48.8582 # maximum cycle power usage of cc1
max_cycle_power_cc2         33.0329 # maximum cycle power usage of cc2
max_cycle_power_cc3         36.2192 # maximum cycle power usage of cc3
sim_invalid_addrs                 0 # total non-speculative bogus addresses seen (debug var)
ld_text_base           0x0120000000 # program text (code) segment base
ld_text_size                 933888 # program text (code) size in bytes
ld_data_base           0x0140000000 # program initialized data segment base
ld_data_size                1034176 # program init'ed `.data' and uninit'ed `.bss' size in bytes
ld_stack_base          0x011ff9b000 # program stack segment base (highest address in stack)
ld_stack_size                 16384 # program initial stack size
ld_prog_entry          0x01200508cc # program entry point (initial PC)
ld_environ_base        0x011ff968c0 # program environment base address address
ld_target_big_endian              0 # target executable endian-ness, non-zero if big endian
mem.page_count                24731 # total number of pages allocated
mem.page_mem                197848k # total size of memory pages allocated
mem.ptab_misses               28320 # total first level page table misses
mem.ptab_accesses        1160859730 # total page table accesses
mem.ptab_miss_rate           0.0000 # first level page table miss rate

